17
Coordinates from ORCA-job NEB_product E -38.320826495230
  C           1.63741222643556     -1.05355652470322      1.17350463443518
  C           0.72552754396188      0.14658200071339      1.17671257972768
  C           1.50688250285111     -1.84317968539892     -0.12642699169713
  H           2.66757538927052     -0.67812294649516      1.22293010667848
  F           1.09556483821357      0.98124846797325      2.18779408609264
  C           1.38581716006101     -1.87988294613775      2.46203455620488
  C          -0.02876284467621     -2.36607224387336      2.60389549743886
  C          -0.98841342266328     -1.65115093955463      3.16056348505953
  O          -0.18504343958645      0.43378246298781      0.49290471146876
  H           2.07567263597038     -2.72364843817784      2.46121248969206
  H           1.63206601185964     -1.23099999754033      3.30525194011556
  H          -0.23191548859919     -3.35775832634651      2.22799671288891
  H          -0.81229884000501     -0.66187655895788      3.55177661467644
  H          -1.99363652792948     -2.02345914731148      3.24996840495570
  Cl         -0.14058569627884     -2.40859087666556     -0.43181973674290
  Cl          1.99985286716603     -0.79326563171217     -1.48906828133706
  Cl          2.59928508394878     -3.24534866879965     -0.09813080965761
