17
Coordinates from ORCA-job NEB_reactant E -38.300001788940
  C           1.59852208992683      0.07583439922701     -0.08201849552736
  C           0.98088839124773     -0.13849618103434      1.08394954419105
  C           1.98850023325042     -1.03636320554209     -0.97436597769588
  H           1.82411629519028      1.08263216994821     -0.38424805452876
  F           0.65062421544766      0.91433628431099      1.84982265375075
  C          -0.13394580705992     -3.41022083376473      4.27312607778920
  C          -0.30321447835794     -2.83906564112502      3.09685544511724
  C          -0.02397842309760     -1.39531953634197      2.82153063666743
  O           0.65685380605371     -1.31819650477443      1.56452512556011
  H          -0.36611537140532     -4.44793540129833      4.43486355398959
  H           0.23204007203962     -2.86214337669625      5.12576003903687
  H          -0.66328370373330     -3.39369282092247      2.24283572511503
  H           0.59372311522451     -0.95160330385769      3.61047156414331
  H          -0.96663621815015     -0.83365474269099      2.75569395597782
  Cl          0.56478021843773     -2.00352774012689     -1.46711736212133
  Cl          2.76888716076371     -0.41700396420437     -2.43447852899045
  Cl          3.12603840422203     -2.15657960110664     -0.16080590247462
