22
Coordinates from ORCA-job NEB_reactant E -50.500893369800
  C           2.29885311257131     -0.38290559856694      0.81371409165432
  C           1.23793115501181     -0.26195977726628      1.63459576963972
  N           3.08624203525197     -1.53163574978667      0.56715867636748
  H           2.63030535527027      0.48520660255212      0.26361082283709
  C           0.45595180457421      1.03410959566353      1.64220646977743
  C           3.88987293545955     -2.64173127952738      3.30075664023471
  C           2.83832974463872     -1.85638219251252      3.47606554851887
  C           1.45549032183935     -2.21425349254325      3.02632711980979
  O           0.73549465887264     -1.07897046530055      2.56096615796008
  C           5.27004872821016     -2.35352611476405      3.74632075753713
  H           3.78521536656046     -3.60147775434614      2.80815273157736
  H           2.92608185577126     -0.89218149103008      3.96126155593644
  H           0.86541263406878     -2.56342605789108      3.88044045964801
  H           1.48520437236176     -2.99884352323867      2.25993644810233
  O           4.27213932220091     -1.35752013417403      0.37441556864006
  O           2.53794215354487     -2.62133464243057      0.53389199018904
  F           0.74031964535620      1.80652666127895      0.55862769596577
  H           0.69576737503049      1.62150404543115      2.53670020327375
  H          -0.61636733267778      0.81181059367195      1.62686705513895
  Br          6.54452138410104     -2.72638333199181      2.30284804595808
  Br          5.55106347706102     -0.52794265801166      4.34006139172353
  Br          5.69257989492097     -3.54578323521605      5.27147479951008
