21
Coordinates from ORCA-job NEB E -53.752407745050
  C           0.49160424956629      0.06163434954317      0.20125120583200
  C           0.27641774768817     -1.35869595909644      0.24335445051961
  C           0.15519191581399      1.00742496367668      1.29449749430099
  H           2.17934138403873      0.56701755825597     -0.18977953017759
  C           0.84779729918713     -2.18814675160274      1.42759009517540
  C           0.06284635619466      0.59394075624064     -1.30499306189167
  C          -1.28762541428325      1.22346400636676     -1.33961818082154
  C          -2.38232498758551      0.50897181514042     -1.54308126879683
  O          -0.16856339117773     -1.99437021173853     -0.69657657872567
  C           1.27514507013451      1.26065211066417     -1.61916155833767
  H           0.01803108172607     -0.32390206217955     -1.91000997820861
  H          -1.33655488821802      2.28793321528918     -1.16827303146590
  H          -2.34309619255240     -0.55833465016775     -1.68808503552490
  H          -3.35682050001797      0.96489972571878     -1.54781073681645
  Cl          0.36134502648067      2.71746476396869      0.79861722295381
  Cl         -1.56743482834138      0.84440644305487      1.85625528772542
  Cl          1.20549960686189      0.81732311446427      2.71746614659688
  Cl          2.55045091138812     -1.77366932636733      1.71825873238751
  Cl         -0.12357723815261     -1.96244182797361      2.88883235244569
  Cl          0.78424477577152     -3.90540474526291      0.99057904079606
  N           2.35808201547711      1.20983271200528     -1.12931306796655
