21
Coordinates from ORCA-job NEB_product E -53.872028473410
  C           1.47300261621418      0.22400285733596     -1.59721327005239
  C           2.42769520203830     -0.91328074298651     -1.94097413262481
  C           2.22243802810314      1.26998077298686     -0.76512326146876
  H           0.64639484479613     -0.14787055347139     -0.98524928113631
  C           1.87480351787713     -2.32310194778833     -1.64207290929754
  C           0.87402342079934      0.76848219998856     -2.92850837490884
  C           0.05400809157886      2.02171770678566     -2.73768759528828
  C          -1.26327389934997      2.00497335353427     -2.67308954060074
  O           3.50290024929235     -0.76905229942191     -2.43181502034471
  C           1.87883607043611      1.01376102568877     -3.94478063673592
  H           0.22051279546217     -0.02318079580088     -3.31682214843755
  H           0.60898782522684      2.94615484291392     -2.68459087999533
  H          -1.82932622252923      1.08969183505343     -2.73610617511408
  H          -1.82968396905638      2.91066405191157     -2.54789114507595
  Cl          3.32997985306350      2.25421544591151     -1.72996631686083
  Cl          1.06507293021084      2.32821748504702      0.07365646244278
  Cl          3.16839743418239      0.42042044172997      0.49578072560959
  Cl          3.05089799479626     -3.55330345979108     -2.10553738614105
  Cl          1.50900503486107     -2.45665564515616      0.09277623778656
  Cl          0.37564323274285     -2.55406876268329     -2.57035374741695
  N           2.59478494925415      1.21703218821210     -4.81063160433890
