21
Coordinates from ORCA-job NEB_reactant E -53.865821094150
  C           1.46838740319975     -0.04432120337655     -0.07763254108724
  C           1.42695471068376     -0.97431844914021     -1.03941267290373
  C           1.62440858636673      1.42468122243855     -0.21951671108661
  H           1.42351924409680     -0.38045405918247      0.94679448664008
  C           1.38768132036599     -2.45283343172412     -0.68828879239229
  C           0.64042949200853      2.09418473737044     -4.37409106040986
  C           1.13703281988104      0.91658767204305     -4.00081096157743
  C           0.47237186336511      0.01729318481195     -3.01134055965101
  O           1.42978819756140     -0.83616918021016     -2.37402257525191
  C           1.26730673439600      2.90316528136553     -5.34168177354972
  H          -0.27070659434247      2.49437061025213     -3.94812855448434
  H           2.05099795159690      0.53290332311719     -4.43186539392528
  H          -0.21313118977985     -0.65461732752256     -3.55114835877865
  H          -0.10715814844107      0.58040929547251     -2.27675396543053
  Cl          2.66754698246084      1.87956783853611     -1.58438181037187
  Cl          0.03260421201548      2.24581820709107     -0.40867802903116
  Cl          2.36408935406306      2.07157691468412      1.26782061016535
  Cl          2.59880602089024     -3.30594951457396     -1.66709646742107
  Cl          1.67597641912761     -2.81810513528068      1.00995346228167
  Cl         -0.23867342299615     -3.05101526890652     -1.13061485024011
  N           1.76796804348030      3.57242528273459     -6.12610348149428
