23
Coordinates from ORCA-job NEB E -41.035402151000
  C           0.28917483435388     -1.00268917799271     -0.65519159894181
  C          -0.97087945808818     -0.88290847728196     -1.26205971428621
  C           0.43406995906808     -1.83157079497153      0.59292525988741
  H           1.14453687465867     -1.15259304159397     -1.30416749611890
  N          -1.02503980726136     -0.60523056856218     -2.61762963425536
  C           0.48869455453373      0.98414238700820     -0.12706479509398
  C          -0.67035902251335      1.17494335263942      0.63175974515396
  C          -1.91227789404151      1.03917776016800     -0.00298001285084
  O          -2.01226834843527     -0.63027388750527     -0.56416033715070
  O           1.75426455440697      1.11964522503876      0.32773407948900
  H           0.46397935202366      1.28703736972977     -1.17129177261711
  H          -0.63127433739753      1.03521270641822      1.69975386784063
  H          -2.03128794686231      1.48059762055782     -0.98518936346244
  H          -2.79766815951328      1.08196482841486      0.61309604820739
  F           1.74406758107689     -1.92567739221210      0.94790947552288
  F          -0.20406241774937     -1.36151372578006      1.68859564733709
  H           0.07357735850347     -2.86578074151903      0.44266019801105
  H          -1.95194244553456     -0.56042766787102     -3.00964000734722
  H          -0.32030622447092     -1.00583405924071     -3.21230220766870
  C           1.97400021577087      1.14590056714380      1.72495876619423
  H           1.52409871712576      2.03858701828737      2.16984084831521
  H           3.05462893088812      1.17855324135387      1.84918326445728
  H           1.58227312945752      0.25873745777043      2.22325973937714
