23
Coordinates from ORCA-job NEB_product E -41.091807377900
  C           2.28957432296959      1.38676207769670      0.50413731027407
  C           2.42363669872636      1.01192253430153     -0.98835819649109
  C           1.25300662991219      0.44754688527333      1.12199556741842
  H           3.24735967339454      1.14505988109386      0.97991116706174
  N           2.85651763568140      1.99490316465904     -1.78835544650736
  C           1.93512866811627      2.87174872561196      0.77650080035269
  C           1.64748096415322      3.07965604817405      2.23899174403540
  C           0.53876196551176      3.63696589456107      2.68555267432938
  O           2.18805252437361     -0.11173231239006     -1.37554142223437
  O           2.93148534578164      3.76399684966692      0.27861317803446
  H           1.04333272521903      3.12930186653622      0.19282758952376
  H           2.40715703655479      2.73096414827909      2.92489312141681
  H          -0.23714898726691      3.97151583474007      2.01749390356780
  H           0.35650798146349      3.76505703737847      3.73849573746203
  F           1.44497086934832      0.29432567016106      2.45628423875090
  F          -0.00444804938692      0.93007452309996      0.97881116180315
  H           1.29024794835931     -0.54869794569745      0.65603398584642
  H           2.94653877866879      1.80411028945504     -2.77264192649676
  H           3.01341085142746      2.92609095697697     -1.42848564808980
  C           4.10716161219401      3.90641844185098      1.04698378811573
  H           4.77239828841508      4.52852055657086      0.45029084912405
  H           4.59447478096623      2.94589776398796      1.23946348667504
  H           3.90419173541673      4.40839110801239      1.99670233602755
