23
Coordinates from ORCA-job NEB_reactant E -41.067770609330
  C           1.88455164924856      0.21463768813623     -0.01674199908083
  C           1.57158157605360      1.34062591307615     -0.69606377376402
  C           1.44997696941935     -0.22884487656129      1.32668959218595
  H           2.52167315546049     -0.48710827598349     -0.52830729156789
  N           2.06238019436613      1.52806306495617     -1.97097985603914
  C           2.36283312001842      4.73366763479348      1.47949349098367
  C           2.10462448185922      3.43323902840096      1.41284193425520
  C           0.77190526801209      2.90568525570209      0.98483594585655
  O           0.80748389240919      2.39508851718135     -0.35285746566202
  O           3.51147102308091      5.34457890159701      1.84028535252962
  H           1.60919775700225      5.47614041112539      1.25024601997441
  H           2.85307059476140      2.69010082589640      1.63465539532570
  H           0.03618369851661      3.71086790615237      0.92728266912569
  H           0.40742702824748      2.15019902419263      1.68245417094214
  F           2.02810787723667      0.46569345082066      2.36380719597727
  F           0.10538499733223     -0.09781462413686      1.53694131782354
  H           1.69533697800017     -1.28762988727987      1.49575319588022
  H           1.61060139443985      2.27417268303199     -2.47589557055495
  H           2.27103690635894      0.70598173299713     -2.51158708196351
  C           4.60468623704815      4.52313351804480      2.18204881548728
  H           5.41609147034291      5.19772459344568      2.44917317883275
  H           4.90925537150055      3.89892660410572      1.33638816881737
  H           4.36403835928483      3.88067091030528      3.03423659463497
