26
Coordinates from ORCA-job NEB E -46.393436259910
  C           0.32235066008439      0.30978287474954     -0.42888741567786
  C           1.13753648449387      0.72953204084517      0.55656222772304
  C           0.57500058931834      0.45446499227075     -1.88305166695568
  H          -1.27657808639616      2.22237254456637      0.27505175648990
  C           2.45122807461115      1.45645457594694      0.44783632021030
  C          -0.91214790443712     -0.44184119776178     -0.04462961270271
  C          -2.01848283383251      0.19778806024114      0.32773108378800
  C          -2.21446752251862      1.67629283694678      0.34633080875329
  O           0.82050036832346      0.54587498537666      1.85822756061928
  C          -0.82260169360613     -1.94488047355769     -0.12514552730517
  H          -0.04333324183925      0.10826826377730      1.93402806449965
  H          -2.88461238748389     -0.38591023013151      0.60962559048542
  H          -2.73932267772810      1.97859894482258      1.25051424418304
  H          -2.83957139055552      1.96032121745946     -0.50167453918751
  Br          1.21969086265880      2.22871499802340     -2.41955714865450
  Br          1.87438589056123     -0.89723416822347     -2.55597021087718
  Br         -1.05915777928576      0.19304484885224     -2.92911143646760
  F           3.28082669001624      0.88284841924145     -0.47540172637869
  H           2.94902197746856      1.40682865027094      1.42074662118448
  H           2.31324921720819      2.50399635649024      0.15528433605158
  C           0.36791068647512     -2.52781936916085      0.63367010791937
  H          -0.74472657874093     -2.23714078472262     -1.17681311756038
  H          -1.75102882612753     -2.37092323418254      0.25911404578769
  H           1.30904611474631     -2.13590218523070      0.25464726425293
  H           0.38325315368231     -3.60779583390928      0.51351071227340
  H           0.30203015290355     -2.30573713300050      1.69736165754591
