26
Coordinates from ORCA-job NEB_product E -46.363187482970
  C           1.57592719484880     -1.62703007911562      1.18569621133724
  C           3.04345791557191     -1.95274966716890      1.52422324055076
  C           1.29552328002044     -1.34642927542948     -0.28052037610483
  H           1.42101435682191     -0.64515859490745      1.65938310511512
  C           3.82121791077353     -2.89459682412717      0.61747097569286
  C           0.63784726544915     -2.60486364561110      1.98866540878884
  C          -0.72669003951548     -2.77998737068070      1.38867058412873
  C          -1.83956855722848     -2.46866764059492      2.02737006917096
  O           3.53347983147660     -1.47493415911706      2.50753147696285
  C           1.22821784803945     -3.98853166644365      2.35762134811437
  H           0.50806995610857     -2.09555336735892      2.95013281045711
  H          -0.77808993737814     -3.24739916096459      0.41599234896263
  H          -1.82820628524813     -2.01711452620914      3.00578808322209
  H          -2.80782836974938     -2.64436530228358      1.59279587457088
  Br         -0.41062831199041     -0.39922434659954     -0.50356452382027
  Br          2.66641228625991     -0.08108300146144     -0.95470333577578
  Br          1.27396034471775     -2.85373737515755     -1.50042848229586
  F           4.96094614820686     -3.29422351859046      1.25073470681554
  H           4.13353947511433     -2.38433891777365     -0.30173834299938
  H           3.25656582860011     -3.79793062614949      0.37055198758267
  C           1.03871472284684     -5.12027883374196      1.35251454596478
  H           0.72032353366631     -4.29078509014788      3.27669404577554
  H           2.28401494779195     -3.88269252542804      2.61128422361634
  H          -0.01590393694979     -5.35512056048681      1.23534666801207
  H           1.54015013110437     -6.01042532149163      1.72521472740061
  H           1.44453246064102     -4.89487860295928      0.37097261875411
