18
Coordinates from ORCA-job P E -32.613292900620
  C          -1.21559005583645      0.58124048724982     -2.32401396345170
  C          -0.38377962947791     -1.70468021193483     -0.62203190775854
  C          -1.23419619556809     -1.85187873509086     -1.84489524658352
  C          -1.60781656336493     -0.84200385453874     -2.61027642587210
  C          -0.79269556479913      0.77458136078179     -0.87392024736811
  C           0.21224476538696     -0.30603804539620     -0.49155680981185
  H          -1.53589146390013     -2.85926138488897     -2.09012226857415
  H          -2.20020549672080     -0.98719516591544     -3.50153773990993
  N          -2.37079411611372      1.45591757902808     -2.66905665319914
  H          -0.98250398673181     -1.92351259051523      0.26605120168607
  H          -0.40763491410668      0.86827025225872     -3.01014895046332
  H           0.43031273684568     -2.43269785475043     -0.65643684638621
  H          -1.66187251246419      0.69250701183650     -0.22015311396158
  H           0.59736748939643     -0.13871443749500      0.52196790497866
  H          -0.35141177199137      1.76292900664517     -0.73680417474140
  F           1.31422068460321     -0.20264807170894     -1.32385925450284
  O          -2.70673667749545      1.46596247740966     -3.82750463273266
  O          -2.89514672766162      2.08123217702491     -1.78202087134767
