18
Coordinates from ORCA-job NEB E -37.039515594830
  C           0.61734825940020     -0.36301878228842      0.21568636249861
  C           0.74402194741491     -0.41231247158195     -1.16967223398134
  H           0.70597384885764     -0.69954129770004      1.30026516629604
  H           1.11280006613191     -1.43195032490277      0.51254322651259
  C           1.31610850656854     -1.68921249545787     -1.84414271264808
  C          -0.06724442573571      0.95943730189681      0.67798633087080
  C          -1.44386995851066      0.71298692083847      1.24289391347066
  C          -2.54596089613724      1.12475911633807      0.64689467122927
  O           0.41699991959721      0.45231967807584     -1.97403439203047
  C           0.75712580944958      1.64445407361816      1.64964317689425
  H          -0.14061946716492      1.57435102780857     -0.22953265216578
  H          -1.48378723742121      0.17025501062268      2.17957721683173
  H          -2.51754754254215      1.66478719135399     -0.28471876052991
  H          -3.51979143335954      0.92969688867274      1.06134542707252
  Br         -0.14651889195317     -2.58428932868739     -2.78194400276268
  Br          2.70307445324884     -1.19845298884583     -3.10525212622128
  Br          2.07934544420508     -2.99648101389377     -0.54042090426964
  N           1.41254159795069      2.14221149413272      2.44288229293274
