18
Coordinates from ORCA-job NEB_reactant E -37.172108166180
  C           1.39648225128865      0.83212379117162      0.24845665894915
  C           1.34904284302298      1.33187169954842     -0.97755108786039
  H           1.03395421748178      1.38034620202505      1.09744309437945
  H           1.80670748259367     -0.13894086392523      0.44799956875906
  C           1.85608440485272      0.64704518103274     -2.20892334041054
  C           1.02454995401273      4.31311553332102      1.79519261833915
  C           1.29937026066677      3.95370014088507      0.54301257736284
  C           0.28538258381658      3.38917920472853     -0.40174578718353
  O           0.85194484255879      2.53444712926726     -1.37237486713339
  C           1.99582462851158      4.87229182999198      2.64955779473202
  H           0.03631734073833      4.19816827847963      2.22321123819881
  H           2.29409726976439      4.08185222870512      0.13635209938303
  H          -0.15035614351355      4.20288216228308     -0.99427688064531
  H          -0.52415777975939      2.87698976540831      0.13509645957257
  Br          2.57680769594888     -1.11498497603804     -1.92168758451459
  Br          0.38955653438662      0.50951309349352     -3.50031928180874
  Br          3.25791833775345      1.76609121316934     -3.00150761079320
  N           2.77857327587502      5.31760838645257      3.35816433067360
