18
Coordinates from ORCA-job NEB_product E -37.179162157910
  C           1.35741405312261      1.82577280596276     -0.22396919767927
  C           1.77142124726480      2.14224275116641     -1.63338847375018
  H           2.15126094620691      1.31156586647995      0.32246001923144
  H           0.49432203057695      1.15350065239594     -0.27890325419278
  C           2.85363099124076      1.23424304705695     -2.21731841911402
  C           0.93739017410780      3.11382959909780      0.51153790843602
  C           0.40769016998663      2.80891357466870      1.88777847988379
  C          -0.77837938738668      3.19670939033498      2.31347612800410
  O           1.32822950753704      3.03266641848117     -2.29722550326747
  C           2.09439684264445      3.97925812708948      0.63070584310504
  H           0.18077493692934      3.64062364424465     -0.08166075718400
  H           1.07953724450343      2.25092037313658      2.52571497907042
  H          -1.45349623106084      3.76121164127015      1.69106936205101
  H          -1.12365308155631      2.96648856059516      3.30613903082588
  Br          2.42107514616275     -0.64006150205588     -1.92563584414129
  Br          3.05381482901783      1.56649586457868     -4.10927344251307
  Br          4.52521204656248      1.66982765365704     -1.28702121460054
  N           3.01885853414004      4.64189153183949      0.73101435583491
