19
Coordinates from ORCA-job NEB E -40.822906480950
  C           0.81708151727486     -0.47691933956647      0.56609296314624
  C          -0.12944572128199     -1.17673904036794     -0.16532686280457
  C           0.59189998887927     -0.08187551978936      2.00370872149606
  H           1.85325920593841     -0.75633480903342      0.39035513698072
  N           0.35181449513286     -1.90073583614020     -1.32687120628006
  C           0.60403077119139      1.32350021557559     -0.39244452983402
  C          -0.75620835858175      1.47145347858660     -0.30000835316199
  C          -1.62864746231443      0.48704474060658     -0.92966955121023
  O          -1.39530873312124     -0.82221340410827     -0.20050339048568
  H           1.24465958819192      1.98670116156583      0.16994966142305
  H           1.04737448603544      0.94007832855979     -1.30065558378367
  H          -1.17681199125339      2.07779277700450      0.48819411330702
  H          -1.40095425875217      0.27318380161577     -1.97676072246046
  H          -2.69004933002781      0.66701729601323     -0.78783241760883
  F           1.49878600759213      0.84706827619169      2.39055782678451
  F          -0.62028256331695      0.44948934544969      2.24932324361183
  H           0.71417835699893     -0.95652259263392      2.66705538304928
  O          -0.44270091456294     -2.09946618410441     -2.22081578091910
  O           1.51732491597748     -2.25252269542529     -1.32434865125012
