19
Coordinates from ORCA-job NEB_product E -40.850613412880
  C           2.36807348133277      1.35334063151300     -0.41903181472506
  C           1.50101212133591      0.25337503638665     -0.94698655010012
  C           2.27690716533011      1.41338186750181      1.11112226989096
  H           3.41121500987528      1.13739104888882     -0.67628410459955
  N           1.65296340817742      0.06612951355349     -2.47559952549191
  C           1.94976074289396      2.69028317055310     -1.08677350978051
  C           0.47408383976797      2.70773661591228     -1.37143691635293
  C          -0.03084501801222      2.77585627088625     -2.58937324037644
  O           0.75299900873209     -0.46696200802548     -0.38089335171332
  H           2.21150401138019      3.50651855841676     -0.40996846978940
  H           2.50834817314150      2.81656330987024     -2.01461526812396
  H          -0.17208643822712      2.65263987755298     -0.50654136922893
  H           0.59691642662674      2.83825953879592     -3.46416603576548
  H          -1.09225476189111      2.77917304644915     -2.76385517166590
  F           3.28583199632380      2.17664887494785      1.59129993145844
  F           1.13388438232226      1.99631906868080      1.52286941052557
  H           2.34179112114938      0.42150843127512      1.58485351115685
  O           0.77593832679064     -0.54967424818604     -3.01176829244351
  O           2.64425700295042      0.53001139502728     -2.98375150287478
