19
Coordinates from ORCA-job NEB_reactant E -40.838644592170
  C           1.94111953204376      0.23382255636361     -0.04318719721959
  C           1.62035883864714      0.31727372469575     -1.34120347971350
  C           1.46012570928028      1.06073926941637      1.10679533358771
  H           2.62224051499643     -0.56295531332669      0.21770457316106
  N           2.24376905262554     -0.72300482355242     -2.22347073929073
  C           1.41232598337063      4.48157241643790     -2.59125705559563
  C           1.51504632772913      3.38819897450235     -1.86140015328079
  C           0.41317439467737      2.38052830154374     -1.72154284837189
  O           0.85493187300008      1.07326229095330     -2.09792157431093
  H           2.21661209128349      5.19292878297265     -2.65826576030198
  H           0.51578357208152      4.71604424377246     -3.14064924316409
  H           2.42105393253360      3.16617694277450     -1.31521001142581
  H          -0.39689820385563      2.59710860838851     -2.42090871757567
  H           0.00958581498313      2.38240225468075     -0.70617065869433
  F           1.87186467584718      2.35545757156609      1.02708344086935
  F           0.10140650054029      1.11471499650424      1.16801982077491
  H           1.81513175833980      0.66274226628020      2.06789121799839
  O           2.06935221843389     -0.59460680648763     -3.40369913891688
  O           2.87071541344238     -1.60310625748567     -1.68720780852959
