16
Coordinates from ORCA-job NEB E -30.279519942760
  C           0.58514419232767     -0.47690130721450      1.15057323945469
  C          -0.77793262803527     -0.43844532996328      0.79943299576674
  Cl          1.18826542107856      0.79760821502853      2.16996337876323
  H           1.03522774253395     -1.43102283508826      1.39748809186463
  N          -1.37162681632586     -1.61082846656129      0.35972417994428
  C           1.30884848464276      0.01643031673327     -0.63133769679950
  C           0.70002052004513      1.24578805170100     -0.87536722654698
  C          -0.71014213660469      1.25095474293679     -0.98940346151850
  O          -1.32944363059705      0.67385525658677      0.46467419028090
  Cl          3.02958256115250     -0.03170872876731     -0.41561908973152
  H           0.95283262953554     -0.86792287054445     -1.14971092505044
  H           1.19802940090068      2.14076023290850     -0.53551633482320
  H          -1.14993142949064      0.50703664860057     -1.64659271642879
  H          -1.19289659221541      2.21662293320985     -1.05016738631364
  H          -2.34927034242086     -1.52585855761842      0.12832958947682
  H          -1.11670737652702     -2.46636830194778      0.82352917166129
