20
Coordinates from ORCA-job NEB E -41.987466528350
  C           1.14515023764084     -0.13915876455226     -0.52354019296829
  C           0.61704727237979      0.39548655026852     -1.69239368074793
  C           0.96963880147002     -1.62606116536383     -0.35179613493143
  H           2.10920678945442      0.23022553702497     -0.19314312502899
  F           1.13400838689237      1.59794412456992     -2.08588692491685
  C          -0.21169596921541      0.67706761288556      0.73774039681904
  C          -1.40110293000014      0.23517312583067      0.17612131595485
  C          -1.74695578174418      0.68816233045529     -1.12467358898373
  O          -0.53794255208829      0.11657583940640     -2.12537586002295
  C           0.17485166606985      0.27528250152451      2.13900132229641
  H           0.09361293029349      1.69640273262416      0.51743637648984
  H          -1.84270448449972     -0.68132195193465      0.54121670338918
  H          -1.64252181877737      1.75086014190177     -1.31943844850596
  H          -2.62628229225820      0.25638827506420     -1.58427999674311
  F           1.91742008215184     -2.27455887400419     -1.07468530332303
  F           1.15989715146642     -2.02457116182845      0.92725653484849
  H          -0.01311531414902     -1.98876426636863     -0.68645401573799
  F          -0.23471285576368      1.27349719415327      2.99328933675027
  H           1.25707311600213      0.18542344088382      2.26842641677835
  H          -0.32087243532519     -0.64405322254104      2.46117886858381
