20
Coordinates from ORCA-job NEB_product E -42.035438895010
  C           1.48948449915710      1.07330504430903      2.16038686202406
  C           1.30916915333656      1.56166856328193      0.74858572989904
  C           1.24670446659150     -0.43813387710611      2.18127622874815
  H           2.52120545230147      1.26835714356893      2.47473036818547
  F           1.94373202395224      2.74769788123150      0.57567843294956
  C           0.51857984588856      1.88815365183988      3.05902951117532
  C          -0.91125330934136      1.48528085734574      2.82385715578530
  C          -1.76974528250667      2.20711311592090      2.12971757813248
  O           0.69134515635862      1.08855079457333     -0.13452435332036
  C           0.88915748671511      1.76195897698342      4.54203879969168
  H           0.64015331484135      2.94522416686929      2.79299275900588
  H          -1.21280809657924      0.55239296944085      3.28005611284398
  H          -1.49318188459594      3.14616922523646      1.67918407607689
  H          -2.78798054646840      1.89156986258215      1.98672769036445
  F           2.28132714636104     -1.06338129570159      1.57535397044458
  F           1.20886597877728     -0.92136631483268      3.44312587046345
  H           0.32084189849434     -0.73348427802612      1.66663614885686
  F           0.25970965217468      2.75895364711572      5.23941161029184
  H           1.96399459237967      1.89796071118430      4.70181903216967
  H           0.56039845216208      0.81410915418306      4.97581641621170
