22
Coordinates from ORCA-job P E -28.482683207810
  C          -1.30911883215608      0.36388300674202     -2.33827336697517
  C          -0.13240113381101     -1.70279549472377     -0.98055035044869
  C          -1.49325784251733     -1.91794827566680     -1.55945967912356
  C          -2.05478957918183     -0.93217560837959     -2.24135502981321
  C          -0.84879977276201      0.75394028546675     -0.92356574768482
  C          -0.02068960968951     -0.35137071606997     -0.24253733395816
  H          -1.97393778783475     -2.87417683381645     -1.42318975050728
  H          -3.03113193707902     -1.00990342241642     -2.69380481529581
  C          -2.16564263166044      1.45755138916453     -2.96259138581648
  H           0.13888562945086     -2.51292051322501     -0.30342674929522
  H          -0.41887313627953      0.22966876861450     -2.96609479008924
  H           0.59264902734204     -1.70215710272050     -1.80151596096807
  H          -1.74237984220648      0.96083714321193     -0.33039002995540
  H          -0.41123429508333     -0.49433277124381      0.76994497002368
  H          -0.26794846988612      1.67529683054027     -0.97911075134871
  C           1.44902175638391      0.04938483942408     -0.13167306750176
  F          -1.42769420414555      2.60178379062589     -3.15773974082721
  H          -3.00334834873387      1.73154581965762     -2.31224621477431
  H          -2.53922336690852      1.15687523650979     -3.94739613345053
  H           1.86241493877302      0.25634439137156     -1.11664309079793
  H           2.02974902831000     -0.75027958705694      0.32367644915279
  H           1.55775040967557      0.94150882399033      0.48095256945510
