22
Coordinates from ORCA-job R E -28.388469437490
  C          -1.12838999192874     -0.05493270614214     -2.91192951205141
  C          -0.23944566639565     -2.85466271514183     -2.18948346332514
  C          -1.22712744934039     -2.16856058330121     -1.62475514087733
  C          -1.73977764112733     -0.88550964804780     -2.07101039400072
  C          -1.15815151116924      1.47072447471675      0.44360730288397
  C          -0.21855276739467      0.55949278452975      0.60861516090830
  H          -1.72243140055441     -2.57698033202770     -0.75325129266844
  H          -2.69685976886805     -0.59803450605639     -1.65454246321720
  C          -1.69812261687228      1.25437145089953     -3.34089648267633
  H           0.08949497857005     -3.79904888196733     -1.79141754213338
  H          -0.15491880687930     -0.28010370008651     -3.32173430658962
  H           0.26901531360535     -2.50882772621916     -3.07312517094893
  H          -2.04978720883208      1.49132244272169      1.04778843009928
  H          -0.32575805217618     -0.20326323425222      1.37007534188300
  H          -1.06871909182185      2.24029375180726     -0.30522194029904
  C           1.03575581190376      0.48774810945511     -0.19403815231902
  F          -0.74936238669005      2.25089602889087     -3.24152482493220
  H          -2.54535912403898      1.55876963458974     -2.71857456534547
  H          -1.99902361557361      1.23096375714878     -4.39712546587025
  H           1.04469169107084      1.25232890795813     -0.96624034123614
  H           1.12514845806154     -0.49257400414245     -0.66151034556904
  H           1.90289084645127      0.62724669466713      0.45176516828511
