17
Coordinates from ORCA-job NEB E -38.169870155420
  C           0.06356358941838     -1.37261737698168     -0.47828390465893
  C          -1.31864245791221     -1.21084368633636     -0.61739921867382
  F           0.49020398811267     -1.93162573012523      0.66478268496063
  H           0.66655324110774     -1.70114306044227     -1.32102244939880
  Br         -1.87363872444611     -0.79828859122150     -2.44365247951751
  C           0.52741459124259      0.51055933437346     -0.16826660730170
  C          -0.28686613347173      0.81075863122846      0.92125838107614
  C          -1.69900916792529      0.77410239227477      0.73018967638855
  O          -2.04538250057870     -0.75809156576362      0.31993992439781
  C           2.02989015278405      0.53565550641766      0.00491086782436
  H           0.24350164887211      0.87261770355634     -1.15345071990500
  H           0.10754345022034      0.65202695968437      1.91434765539479
  H          -2.08326658354261      1.30132597320292     -0.14143090936105
  H          -2.31231079181670      0.91411857480876      1.61138746846383
  F           2.42762587535291     -0.00554674629119      1.17265628096204
  F           2.64400209618909     -0.16158798601413     -0.98125702427054
  H           2.41881772639347      1.56857966762923     -0.03470962638079
