17
Coordinates from ORCA-job NEB_reactant E -38.192993553170
  C           1.72394075577150      0.02855961814913     -0.28825810582986
  C           1.33260775535445      1.05504210939418     -1.03600555293055
  F           2.19054698487700      0.15890068523030      0.97278548384197
  H           1.70963077419019     -0.99213709300729     -0.62950673816331
  Br          0.71102672849378      0.65889787772221     -2.77929633282900
  C           3.99585854691044      4.11922541557299      0.30472231174845
  C           3.30006752761202      2.99551055362799      0.30524927891068
  C           1.80363628870554      2.95155529976033      0.35187967969747
  O           1.25253592765276      2.37497229839034     -0.83017811553497
  C           5.49315580261868      4.16995412652427      0.25750932874569
  H           3.52931345212759      5.09158285333958      0.36510274423441
  H           3.80623906246007      2.04120767891702      0.25378117248069
  H           1.38579092067871      3.96025224152973      0.37502127300499
  H           1.46976065745591      2.40095966690150      1.23840162279670
  F           5.97878921681639      4.87321490016844      1.31386810308042
  F           6.05302206156731      2.94137778187713      0.32612180209891
  H           5.86957753670766      4.65912398590214     -0.65829795535270
