19
Coordinates from ORCA-job NEB E -33.344371870720
  C          -0.24466572523021      0.73449252993006     -0.27268492163758
  C           0.18689172482082      0.61439597730109      1.05748685068988
  O           0.63373044660549      0.39234232541340     -1.29156662997680
  H          -0.90892037010766      1.56842623595038     -0.52050564665931
  O          -0.51419824302202      1.22738222170039      2.05222465730139
  C          -1.34074278879429     -0.95473620729159     -0.39229017095891
  C          -0.96112428159014     -1.77262074339038      0.66432966605353
  C           0.42519817418787     -1.90142050586919      0.87592872652185
  O           0.93396309163351     -0.35064084691623      1.41404700358642
  I          -3.38617457945031     -0.39512488076453     -0.53341284925921
  H          -0.92049247882717     -1.12040211856084     -1.37345272307594
  H          -1.61046081985082     -1.85467252044016      1.52593199887380
  H           1.05289340210548     -1.97394812230023     -0.00491568608629
  H           0.76204827661028     -2.49645316406856      1.71280415562725
  C           1.56966598552035      1.40864089554807     -1.58807309849463
  H           2.16223091057399      1.03873572092830     -2.42197699420612
  H           2.22113748127084      1.60847867540309     -0.73131374435526
  H           1.06346014939892      2.33601806615998     -1.88037411350103
  H          -1.12444035585493      1.89110646126697      1.70781351955697
