19
Coordinates from ORCA-job NEB_product E -33.404558316000
  C           0.68441575063878     -1.08531821227174     -0.68056705945383
  C           1.77916194817479     -1.06769604108496      0.40394548073201
  O           1.21114498831474     -0.92626618000835     -1.96478194975268
  H          -0.04590635257896     -0.28130834951513     -0.45819023037930
  O           1.32984619337290     -0.91197335506619      1.65968893235579
  C           0.00230485419826     -2.45190750222583     -0.64067118556358
  C          -0.76394014767125     -2.70938269771930      0.60450644414967
  C          -0.57513847169052     -3.76564987026304      1.37643260945507
  O           2.94253597278888     -1.18184551900139      0.16760378390510
  I          -1.36398049434148     -2.55264773551979     -2.33767779624787
  H           0.74480939787188     -3.22537379227538     -0.83223252836717
  H          -1.53678446306406     -1.98471195204590      0.83665850178357
  H           0.16970371800475     -4.50896222454606      1.14647508068048
  H          -1.15660493510790     -3.92669698979216      2.26724398294798
  C           1.73327805403597      0.35187167170278     -2.24706929721848
  H           2.01478824474003      0.32911638915933     -3.29706780637164
  H           2.61351703751850      0.56890692942111     -1.63664241553518
  H           0.97512020992170      1.12859083001951     -2.08802155024504
  H           0.36522849487298     -0.88054539896751      1.72996700312512
