19
Coordinates from ORCA-job NEB_reactant E -33.378075416540
  C           1.52124886825580      0.13234876186219     -0.12437846275151
  C           0.97817311071671     -0.96250166793805      0.41265459124099
  O           2.40343557857115      0.07516889034059     -1.17954518376273
  H           1.31216495619719      1.11548782104350      0.28526276532044
  O           0.17100984045845     -0.92011124731996      1.51922266693245
  C          -1.38565483382530     -4.32131140521077     -0.66355480843344
  C          -0.88958393845518     -3.34510914657686      0.06797138772924
  C           0.55179679714321     -3.29684834931699      0.48953485788223
  O           1.23541293834657     -2.19562662121551     -0.08129319944584
  I          -3.40075255342399     -4.39931524027673     -1.25988111958326
  H          -0.81045075210819     -5.16593809010512     -1.00289650097024
  H          -1.49450758846656     -2.50804186355691      0.38474647124834
  H           1.09284096136785     -4.17461528167259      0.12888388993567
  H           0.60715533801819     -3.25314085878259      1.58462519160457
  C           2.19151684591879      1.07083701759872     -2.15198314596255
  H           2.99745856008825      0.96895101842555     -2.87589078212244
  H           2.22503864578415      2.07335139575527     -1.70735046534116
  H           1.22827076813255      0.94044924980052     -2.65812950539019
  H           0.09502645728036     -0.01203438285425      1.82810135186943
