21
Coordinates from ORCA-job NEB E -41.635703795980
  C           0.14726585253442     -1.18082344687739      0.54330512215504
  C          -1.25314682636030     -1.04147283413061      0.62369404888576
  Cl          1.05466808653507     -0.86517967766016      1.99708157170220
  H           0.55899879196080     -2.02652330555317      0.00420180070306
  C          -2.08910018402326     -1.81874204953370     -0.39644175106715
  C           0.57512632706496      0.34210615975200     -0.63584437012330
  C           0.02038859111332      1.39006038271109      0.13542137774032
  C          -1.35238778578556      1.49053238489692      0.26758100071627
  O          -1.78729398058044     -0.05568031244190      1.20329069428983
  O           1.88591763672666      0.21374028926126     -0.93017843951450
  H           0.00132210409470     -0.00412828188576     -1.49196533202343
  H           0.64423813802098      1.86451442464867      0.87803872960976
  H          -1.98777944928454      1.23951572242117     -0.56890928059978
  H          -1.75958333392566      2.21930716803050      0.94929150695497
  F          -2.00504499727555     -1.25567721847299     -1.63769531950283
  F          -1.64371727404284     -3.08691021323861     -0.53774610626157
  H          -3.15061065913897     -1.84288473872708     -0.11270459576591
  C           2.83915536049447      0.96649725560100     -0.19881720180403
  H           3.80630592494810      0.67081917273477     -0.60055017727428
  H           2.80555452163462      0.74266264991951      0.86807903191400
  H           2.68972315528902      2.03826646854449     -0.35913231073444
