21
Coordinates from ORCA-job NEB_product E -41.658993551770
  C           3.27261012828200      0.16281275313250     -1.50610718928940
  C           1.82328309429057     -0.14725434505291     -1.26366631950678
  Cl          4.05570359088299      0.41112801903145      0.07704811842349
  H           3.77613950395793     -0.67535411447438     -1.99557476086892
  C           1.08065950566485     -0.78614220926896     -2.46601697587604
  C           3.40054774448747      1.41126998481966     -2.45517366236405
  C           2.97142192349195      2.65186668009832     -1.72365365964969
  C           1.85646790495146      3.29778070974792     -2.00639815841653
  O           1.21774593840106      0.09462166209715     -0.25947873121471
  O           4.65584247185094      1.45773173527016     -3.07449845770599
  H           2.71876383347781      1.23093855480548     -3.29525329780036
  H           3.61706248324713      2.97726605698836     -0.92184814262260
  H           1.19576025113160      2.97720822330610     -2.79520267997064
  H           1.55882229252950      4.17293782136935     -1.45533293196467
  F           0.54801024314534      0.19367869695990     -3.23544227567826
  F           1.90952956122989     -1.49445471450589     -3.26158639594519
  H           0.26213825608150     -1.43988859982402     -2.12952597685201
  C           5.74329331592934      2.01355538807518     -2.35869176008252
  H           6.61335769331922      1.83642786447173     -2.98832297129487
  H           5.89236283850751      1.52939496835374     -1.39212746870693
  H           5.61807742513991      3.09107486459916     -2.21734630261331
