21
Coordinates from ORCA-job NEB_reactant E -41.665632584670
  C           2.00514287992795     -0.10746452920830     -0.30138833611745
  C           1.52934338850922      0.06459910375750     -1.53781681784808
  Cl          2.66852345687978      1.08192962538851      0.75608120376336
  H           1.99975852426385     -1.08808267446127      0.14405309619477
  C           0.98732090435605     -1.16756846180527     -2.25052807958569
  C           4.08154108048133      2.75945712225099     -3.34741046398687
  C           3.50037354478441      2.33839432000168     -2.22859559230736
  C           2.01602782321711      2.38705104223587     -2.04507933839248
  O           1.39712215636147      1.12997428603243     -2.33788647920052
  O           5.38923997492834      2.76052830146826     -3.66418135443810
  H           3.50528458553339      3.18847476459556     -4.15695563142266
  H           4.06658702827113      1.89941376338281     -1.42318064460382
  H           1.56187968114613      3.06342035522629     -2.77224605569760
  H           1.75024063027036      2.70917346435151     -1.03499193788805
  F          -0.27804062555403     -0.96202362207736     -2.67400128331833
  F           1.72260704437486     -1.43548249322418     -3.35446679348988
  H           0.99085034769255     -2.06698106820121     -1.61712341900464
  C           6.29103386877745      2.21209478033160     -2.72934573027437
  H           7.27871418694917      2.29648466982937     -3.17847500928008
  H           6.06526468988457      1.15937213512690     -2.53473913562386
  H           6.26808482894491      2.76693511499830     -1.78652219747830
