17
Coordinates from ORCA-job NEB_reactant E -41.224604941400
  C           1.72442211494410     -0.07797859449073     -0.18939941158628
  C           1.66769140362318     -1.07661032219590     -1.06485543248623
  I           2.64613093614178      1.79919703955571     -0.33531839047889
  H           1.23380994601398     -0.19536953216918      0.76072562528375
  C           0.90705403216446     -2.33950792735457     -0.66625315057501
  C           3.15868374890017     -0.30809320461578     -5.45152408179148
  C           3.30886254276912     -0.93736787383493     -4.30266827847202
  C           2.92715984690501     -0.32965724141706     -2.98800131274942
  O           2.13879831009251     -1.29430414751771     -2.30414039323527
  I           3.73162423093094     -1.13402661418244     -7.29053839911578
  H           2.75347667693243      0.68641168451386     -5.53705476602478
  H           3.71032244010333     -1.93797546224191     -4.24492704099844
  H           2.36164240873472      0.59596495481930     -3.13774679870824
  H           3.83631237331799     -0.11421915024701     -2.41115709047089
  F          -0.08752410168005     -2.59627522973065     -1.52042736580480
  F           1.71186154642545     -3.40698884686400     -0.66597357086404
  F           0.36117154368089     -2.26799953202701      0.55225985807781
