17
Coordinates from ORCA-job NEB_product E -41.230356893780
  C           2.69220250463841     -0.95808419531383     -1.71321044094549
  C           1.45834240155579     -1.80442479461801     -1.68920494833026
  I           2.03544434909998      0.76396799153274     -0.53903457999731
  H           3.49592690480725     -1.41762809642925     -1.13569552325287
  C           1.44239504866844     -2.80605985588952     -0.49982298588147
  C           3.17446829528433     -0.51442742366479     -3.07661679397659
  C           2.20218648561579      0.26767606158007     -3.88330819734122
  C           2.50322820001098      1.44108701988113     -4.41216235181425
  O           0.55236564289417     -1.78674667448992     -2.46808469108120
  I           3.72353977995906     -2.35681400824561     -4.14312051149162
  H           4.11213035458019      0.03519783936397     -2.96924040313614
  H           1.22892277574921     -0.17842551427142     -4.02468627514219
  H           1.78458691399967      1.99709386617163     -4.98728689262609
  H           3.47346740260059      1.89449710782251     -4.28626549974426
  F           0.23251829424651     -3.29810533530602     -0.27574233486668
  F           2.26416210223426     -3.82907884164195     -0.78357227689409
  F           1.88671254405537     -2.26712514648174      0.64385470652171
