18
Coordinates from ORCA-job NEB E -29.302115696580
  C           1.05204313651367      0.13716806549567     -0.51680948634301
  C           0.31716884582607      1.24730352580713     -0.88886313694175
  C           0.86804545654765     -1.15490659747602     -1.26354876994168
  H           2.06229694280627      0.30285365658354     -0.15745588895470
  I           1.08372703723876      3.16552783592971     -0.13759456600952
  C           0.02123629756770     -0.24406008226749      1.22830930657873
  C          -1.27376283099101     -0.32541416217752      0.72479877385124
  C          -1.88008069355305      0.81645290099495      0.18181541039799
  O          -0.89426475612072      1.22506194684522     -1.20113467240321
  O           0.60365081638795     -1.38339918302376      1.68824307377957
  H           0.33300065646955      0.67457025360058      1.71925067928578
  H          -1.62582138444123     -1.30383509785126      0.43553158984742
  H          -1.75249098581858      1.76009959443094      0.70051250528453
  H          -2.84583897444509      0.70310622709931     -0.28757272317417
  H           0.97813203394867     -2.00257168188104     -0.58933507933367
  H           1.62950190392460     -1.23521224111496     -2.03893105862620
  H          -0.11259372408571     -1.19220160953127     -1.73018060278571
  H           1.43605022222449     -1.19054335146373      2.13296464548837
