18
Coordinates from ORCA-job NEB_product E -29.339768283270
  C           1.64009068741444     -0.47818637117020      1.86225186974077
  C           1.19912489560592      0.75835919578045      1.15604346625123
  C           1.27735717539627     -1.71140990083733      1.03801819779011
  H           2.72331309006521     -0.44411349220509      2.01844626496354
  I           2.11374395359591      2.56902589185537      1.97254215415451
  C           1.00131017435710     -0.52495394764192      3.27758176567871
  C          -0.50091819134481     -0.55427294984396      3.19568469769256
  C          -1.26565351431822      0.50129168093213      3.39898636441836
  O           0.44822572288794      0.87154460629223      0.25529985339561
  O           1.52546198254599     -1.67329525540042      3.90722006593015
  H           1.31723276112620      0.37750182295182      3.82688877513184
  H          -0.92606121530132     -1.52018247138977      2.96156346784309
  H          -0.85208436525978      1.46695332721710      3.64255117396229
  H          -2.33769786761306      0.44839193803499      3.32318191234240
  H           1.48347295208121     -2.60000511578835      1.62786720523381
  H           1.87158350274816     -1.74250608987769      0.12801917802292
  H           0.22614800131234     -1.69437911295702      0.76231760959965
  H           1.13015025470050     -1.75546375595234      4.78113597784847
