17
Coordinates from ORCA-job NEB E -26.698422718580
  C           0.35479591236664      0.83907672546720      1.02476662402356
  C          -0.68913424124560      0.16486062112038      1.68498703396918
  C           0.09936965487637      1.90273546711397      0.13426127364788
  H           1.29625422831344      0.93826840481450      1.55728138333748
  H          -0.40875488587547     -0.37399164480173      2.60394872235327
  C           0.77529370384391     -0.55076819700502     -0.46051750581060
  C          -0.51919752235748     -0.63117397817503     -1.01436999668588
  C          -1.55011521301986     -1.22468359952061     -0.32418605744937
  O          -1.80413792318733     -0.06020887115994      1.16022893466216
  N           1.80740360591844     -0.04387183943110     -1.20574092043093
  H           1.08188333380809     -1.32747980679156      0.23184471981359
  H          -0.75127331453676      0.05538726335068     -1.81632651368528
  H          -1.35318067129770     -2.06118363751195      0.32929229178494
  H          -2.54919585117309     -1.18090252733242     -0.72363019217715
  N          -0.04745825360005      2.75173413915165     -0.62353979134556
  H           1.56375784521795      0.72366435956000     -1.81656672060932
  H           2.69368959194850      0.07853712115100     -0.74173328539794
