17
Coordinates from ORCA-job NEB_reactant E -26.738136647020
  C           1.83329920526604     -0.07071370199689     -0.08782044163578
  C           2.02788761903176     -1.35620149357960      0.25283817984772
  C           1.52129199351774      0.45291776611076     -1.34838676664185
  H           1.92685015587964      0.67839343990925      0.68623468849206
  H           2.27064263220760     -1.58750466918446      1.28503919158607
  C           3.77053277446198     -3.01084458962587     -3.09560955193858
  C           2.90060627898108     -2.09724353177618     -2.66457135428806
  C           1.69336248762468     -2.45580742705608     -1.85906061155396
  O           1.96217597406488     -2.48106417098222     -0.44759160873230
  N           4.85105802873344     -2.74991811689648     -3.90258260826743
  H           3.61507488471117     -4.06087122548191     -2.88465291200846
  H           3.05813410758603     -1.05009619696447     -2.87378738794596
  H           1.37390518971129     -3.47836458398961     -2.07566632542793
  H           0.86894017285647     -1.76523298335822     -2.05951320183614
  N           1.27591696972966      0.95193733984896     -2.35500849898375
  H           5.11670815211558     -1.78007317247181     -3.97630878721776
  H           5.62271337352098     -3.39401268250516     -3.85755200344792
