17
Coordinates from ORCA-job NEB_product E -26.724758745570
  C           3.14117842731858     -1.03880866391813     -0.84686752651070
  C           2.17729279467266     -1.48190911385547      0.23768685937299
  C           2.78351216136365      0.27084100814449     -1.33174527720687
  H           4.13435810092346     -0.95745696743093     -0.38206143998455
  H           1.93232601997997     -0.67766286710186      0.95713447463190
  C           3.24174627194506     -2.06390706661632     -2.00584531502560
  C           1.97056589129003     -2.07580914328875     -2.81338575605331
  C           1.18366230619761     -3.12795306007902     -2.93028347976920
  O           1.72721417436593     -2.58283593144599      0.34120360582382
  N           4.42953461422811     -1.73978802228558     -2.78430565363082
  H           3.39744550666192     -3.04989256854004     -1.55375143451929
  H           1.74668065117637     -1.14945654729588     -3.32910461333489
  H           1.39448388257589     -4.05010483262593     -2.41467871235265
  H           0.29074518968342     -3.10644442077998     -3.53136346858256
  N           2.48935125604929      1.29376128939684     -1.74829532242283
  H           4.30052260748023     -0.85796384762752     -3.27258868779948
  H           4.59898014408782     -2.45680924464994     -3.48034825263594
