28
Coordinates from ORCA-job NEB_reactant E -34.877307104010
  C           2.64005657819860      0.76206189970538      0.05195070023277
  C           2.45840575716174      0.04047539015885     -1.05386872733049
  C           1.57665300016840      1.57624312325972      0.72109059848299
  H           3.61202522092887      0.75441580792034      0.52282806883919
  N           3.47626917610364     -0.66694264640578     -1.69795272434642
  C           2.93004724132743      1.61655146122398     -4.16647785175511
  C           1.95827855164411      0.77263173097006     -3.86407434597214
  C           1.03226919649327      0.94804535235452     -2.69950549456337
  O           1.24117244460273     -0.04388419839904     -1.69482619900135
  C           3.91566428225379      1.42129199496261     -5.27222988247115
  H           3.06764121866108      2.51216000151597     -3.57366557702065
  H           1.81972754354574     -0.13619197239514     -4.43455197209438
  H          -0.00941288988670      0.80913630712837     -3.00430402825225
  H           1.15517096503923      1.94828513942719     -2.26463045810493
  C           1.43505055939558      1.19982808913884      2.19521211656509
  H           0.62535039814001      1.41532785329251      0.21200656916986
  H           1.82784687198238      2.64061878215399      0.65124922923977
  H           1.16298465935969      0.15125270595041      2.29146303317861
  H           0.66453968116381      1.80288840118569      2.67054817868837
  H           2.37360332227386      1.36133805717111      2.72155377329439
  H           3.13086786721092     -1.44045274157398     -2.24750379567044
  H           4.24982814612791     -0.92014648774246     -1.10238052354530
  C           5.32720056070638      1.27429010642256     -4.70315342912203
  H           3.88712046434096      2.28384788706088     -5.94392327444963
  H           3.65623417587201      0.53141872560492     -5.84839193035853
  H           5.61301782798327      2.17148886891924     -4.15897788898618
  H           6.04635057328541      1.10991004122574     -5.50227772882000
  H           5.36443660591587      0.43201031976355     -4.01640643582669
