20
Coordinates from ORCA-job NEB_reactant E -40.818366234310
  C           1.81355022506012      0.08468976579048      0.01268595836372
  C           1.32370022753384      0.85887897320932      0.96954881021201
  C           2.19982510270491     -1.34122472081267      0.22051378484224
  H           1.96261752570673      0.49841634562231     -0.97233259645243
  Br          0.85457124171535      2.69252159991494      0.54079198565240
  C          -0.50862895546850      0.89803270569331      5.33143306264598
  C           0.04605438942276      0.27628829979956      4.30318780955089
  C          -0.04350671659302      0.76823567693006      2.89658210610081
  O           1.20030045344626      0.51256313191150      2.25963946560564
  C          -0.48015336921770      0.43048603202054      6.74082876536673
  H          -1.05705509282386      1.82089228317365      5.20008485126365
  H           0.60488990488415     -0.63921356869732      4.42937218186292
  H          -0.27589479258744      1.84035452082499      2.86777849126255
  H          -0.84476203360923      0.22412642964731      2.37149790445958
  H           1.95849778069979     -1.66457411520045      1.22897876056372
  H           3.27049545862385     -1.46141363352449      0.05992579665616
  H           1.68199212237685     -1.97446814580364     -0.49868621620499
  Cl          0.23886510279315      1.70358481073873      7.77040631392383
  Cl         -2.16023748937881      0.15210232849512      7.29776381684105
  Cl          0.43427891471080     -1.06117871973324      6.98309894748352
