27
Coordinates from ORCA-job NEB E -35.486450342910
  C           0.31477753721605      0.18167549327144      0.39209335308514
  C          -0.92463601017750     -0.21901034372808      0.89554080223371
  C           0.48277786532071      1.63405628270430      0.01688952352203
  H           1.20332457738205     -0.24516899610663      0.84422649621895
  O          -1.09952474910724     -1.35568688642723      1.65144011474863
  C           0.15285833899547     -0.78923491552240     -1.35202719315608
  C          -1.03403287721657     -0.27700429285476     -1.86724847655708
  C          -2.23059252313830     -0.51246258457781     -1.14059409841187
  O          -2.00777195896736      0.20122032803185      0.34121288199263
  C           1.45209166919341     -0.55950067557450     -2.07419018848933
  H           0.09179529136978     -1.77606588116213     -0.90076771594625
  H          -0.98435274063331      0.59775626213770     -2.49988451360756
  H          -2.41159969273077     -1.53270056990993     -0.81393221840418
  H          -3.12764605078043     -0.01779436176139     -1.48974003255531
  C           0.72320392889504      2.47763918257339      1.26837293268581
  H          -0.42042875223225      1.98277402727887     -0.48337693933186
  H           1.32946136417863      1.75146962345197     -0.65956852357103
  H          -0.13009890779969      2.40636995435178      1.93876054347108
  H           0.86534926690126      3.52118936079346      0.99743809703137
  H           1.61065187334300      2.13764399780551      1.79950571173375
  C          -0.00213143882103     -1.89863001562355      2.34056355866536
  H          -0.41558473300641     -2.64943854642711      3.01275360807817
  H           0.51957529823346     -1.13547254872050      2.92642278759006
  H           0.70714932890174     -2.38041798577558      1.65981657317085
  H           2.30428598901664     -0.65425348921283     -1.40504485010028
  H           1.47306556471800      0.42131777578365     -2.54141526130523
  H           1.55803254094561     -1.31027019479948     -2.85724697279144
