27
Coordinates from ORCA-job NEB_reactant E -35.511507636730
  C           2.78084669038471      0.28947861802589     -0.25838262579366
  C           2.47565038943458     -0.98099535990613     -0.50923061013740
  C           2.07985821663724      1.47391632590893     -0.84691899839793
  H           3.58305664625860      0.48310296550536      0.43563375010902
  O           3.19535692428693     -1.97650902976664      0.10072072990572
  C           2.77792129312610     -3.31768404039045     -3.89799552251956
  C           2.90109773796871     -2.25896948422426     -3.11441051843964
  C           1.77078698403670     -1.34914304553423     -2.74037644011146
  O           1.46541781485862     -1.38292868159059     -1.34369885648792
  C           3.89612851065182     -4.23165257426018     -4.26956448266520
  H           1.81340514400872     -3.56131204654768     -4.32632564688991
  H           3.85841815911302     -2.00785080172950     -2.67479595777103
  H           0.84309669536612     -1.65519381185586     -3.22943358642115
  H           2.01538447346253     -0.31904668045157     -3.03525290649771
  C           1.74941231054308      2.50406740487416      0.23103469494017
  H           1.15820376097408      1.14917058607849     -1.33301164298482
  H           2.71833934460043      1.94654265461157     -1.60205671859994
  H           1.10297960667457      2.06462333842454      0.98673118007141
  H           1.24076977087608      3.36082411767346     -0.20533640087237
  H           2.65862737504234      2.85162990548125      0.71618979382877
  C           2.62406727611770     -3.26834488800061      0.10163523679399
  H           3.28859101060829     -3.87972544316347      0.70919414879926
  H           2.56362736157946     -3.68190495638009     -0.90958676453038
  H           1.62354605456278     -3.25592250330001      0.54230461450344
  H           4.82363004388763     -3.93050145579392     -3.78940245536311
  H           4.03998694380553     -4.22775047796092     -5.34973034868718
  H           3.65989346113362     -5.25352063572753     -3.97373366578141
