27
Coordinates from ORCA-job NEB_product E -35.545737339630
  C           2.93665905344195     -0.90489388296202     -1.07813664110076
  C           1.96136693212963     -1.74829248390065     -0.28026874528729
  C           2.45672472588310      0.55019250686292     -1.03562519321138
  H           3.91566511641493     -0.99188442016458     -0.59683169712857
  O           2.56692410266487     -2.83884742215365      0.21647873729561
  C           3.03839142693483     -1.56643614889261     -2.48367159346631
  C           1.91951312809449     -1.12506314711442     -3.37909832089885
  C           0.84032846549269     -1.84305885374543     -3.62417591461885
  O           0.79469294750970     -1.51296748268881     -0.11426138486480
  C           4.39639901547413     -1.31920978684147     -3.14190753790134
  H           2.94812203892456     -2.64811070054700     -2.32682167311906
  H           2.04229830587238     -0.15447724423091     -3.84018996407740
  H           0.69141143217927     -2.81421637591640     -3.18092469492143
  H           0.05361578204309     -1.49144443773700     -4.26965707280774
  C           3.43127568821518      1.56426065411800     -1.61974390371954
  H           2.28534217976937      0.79958627063653      0.01488036377981
  H           1.49225940670327      0.61789150529795     -1.53991520616753
  H           4.42968768007945      1.41829208325510     -1.21275097703231
  H           3.10537213208775      2.57145370593663     -1.36919796267849
  H           3.48192836458855      1.49294460122333     -2.70236146283340
  C           1.73928450310599     -3.73794397787346      0.94116649576660
  H           2.38699176083948     -4.54120554352713      1.28254700951964
  H           0.94877669088341     -4.12864684210366      0.29717106925961
  H           1.27852386482759     -3.22782557240541      1.78934576610465
  H           5.19891363282663     -1.67732659978953     -2.50106070725872
  H           4.55895631522751     -0.26549335638147     -3.34308927886296
  H           4.44537530778620     -1.85907704835485     -4.08559950976919
