19
Coordinates from ORCA-job NEB E -44.417496253690
  C           0.05627898283161     -1.14001762804013      0.57145433132020
  C          -1.05816154968976     -1.99331705218705      0.08771035517979
  N           0.29498704490971     -1.36127872652943      2.02433756565194
  H           0.98760228480701     -1.38607306992656      0.04015218344037
  H          -1.54272092651160     -2.65479858091397      0.78518875394679
  C          -0.15804044609683      0.33035674013634      0.24889692316667
  C          -0.89491273422774      0.61665675549966     -0.81185283852569
  C          -1.88310041258540     -0.33386798574800     -1.40455828909056
  O          -1.76142282410356     -1.69196071266351     -0.99898394725315
  C           2.33887040638218      2.46726957446224     -0.24802826729016
  H           0.53614751700707      1.01674493088474      0.69718472834008
  H          -0.97543791277877      1.62968574085394     -1.16718662097734
  H          -2.01440676793224     -0.29797580427494     -2.48661440309835
  H          -2.86944804511497     -0.04420415895216     -0.97642703851950
  O           1.35139004139878     -0.99767087061534      2.48174014237695
  O          -0.55512394066732     -1.93396406219108      2.66121792330465
  Cl          1.90885241079887      3.97468779223148     -0.96571495192249
  Cl          3.62962888506401      2.55455244040229      0.90885097678192
  Cl          2.60901798650894      1.24517467757146     -1.44736752683211
