19
Coordinates from ORCA-job NEB_reactant E -44.528742670190
  C           2.03106758670267      0.66780625184521      0.01793376545428
  C           1.33327403539507      0.40345732211540     -1.10242097498399
  N           2.09837373704553      1.86184521036248      0.77340735273102
  H           2.65657627533622     -0.11107107407284      0.42601345996956
  H           1.35973908070825     -0.62435315579795     -1.45499996377240
  C           2.52028885838064      4.11489051566357     -1.43744973839520
  C           2.02468664273811      3.09474818215053     -2.11978478458044
  C           0.64145784480529      2.55542843101813     -1.91178721450134
  O           0.62771394113280      1.13172352522473     -1.94629522649277
  C           3.87730566242438      4.69284195200244     -1.61231176733078
  H           1.93637219013866      4.60911249107186     -0.67211748160658
  H           2.60921418897998      2.58770390138139     -2.87531954570651
  H           0.00063203819714      2.84569080935020     -2.75063825091032
  H           0.21610797554763      2.93244293434804     -0.97505243974778
  O           3.12973052322536      2.07075769166134      1.37899196035398
  O           1.11689615203168      2.58626907438857      0.82390202820033
  Cl          3.71852345272877      6.40516172066091     -2.10579526716389
  Cl          4.74890536178741      4.62751299360326     -0.05135084170064
  Cl          4.85143445269443      3.85963122302274     -2.83092506981654
