15
Coordinates from ORCA-job NEB E -30.626527803400
  C           1.11728907777401      0.76324019993240     -0.02430000528611
  C           0.31956398951270      0.91852246120090      1.12079242062326
  O           0.84431783690052      1.57398955886058     -1.08244684940537
  H           2.17130569308580      0.53115395596135      0.13226551453692
  Br          1.09524695109037      0.06502188149455      2.71301112808906
  C           0.37073739825730     -0.96616367653745     -0.59551992167775
  C          -0.99127998784103     -0.69705540481074     -0.67400158930456
  C          -1.67596478339994     -0.39326779091215      0.52175124223036
  O          -0.93204161815720      1.01584825661777      1.08919267979549
  F           1.04865322615419     -1.13326333892249     -1.75436856522669
  H           0.79021696843133     -1.60196442712222      0.17949010291501
  H          -1.37024021023137     -0.31629803805216     -1.61081556567273
  H          -1.48633596285324     -1.02733588970685      1.38303609448358
  H          -2.70539050619426     -0.07529760076974      0.43649699248595
  H           1.40392192747083      1.34286985276626     -1.83458367858641
