15
Coordinates from ORCA-job NEB_product E -30.663900274910
  C           1.62515337714823     -1.80382652640538     -0.94294779050139
  C           1.16168837154253     -1.15863917934022      0.33773005834658
  O           1.24548137354784     -1.04046612792942     -2.03881433135795
  H           2.71915085001278     -1.86707562604598     -0.97003819779641
  Br          2.07987662556647     -1.85078748098257      1.91409512150647
  C           1.06346085799784     -3.26336829020795     -0.98261050484575
  C          -0.42594651756701     -3.26687310101643     -1.15133852553043
  C          -1.27142690731892     -3.32590171295946     -0.14007140984541
  O           0.31253343029825     -0.34632339052774      0.45841109135983
  F           1.66088361965853     -3.90296279113836     -2.04038168219083
  H           1.37721069239671     -3.80102403514604     -0.07899228326329
  H          -0.76184873594104     -3.20363255030350     -2.17666921357602
  H          -0.93794569399723     -3.40409955814266      0.88220634630980
  H          -2.33556812392520     -3.30215451199888     -0.29415918984462
  H           0.30599678058021     -0.82006511785542     -1.98161948877057
