15
Coordinates from ORCA-job NEB_reactant E -30.653352374750
  C           1.90042681631501     -0.04850228352112      0.18695150046126
  C           1.56446290674689     -1.32057991862828      0.39099378230713
  O           1.80226683511138      0.57760930434815     -1.00428759817371
  H           2.29404147028088      0.57606257907692      0.97167120011179
  Br          1.77816759353373     -2.07157869027173      2.14468459456254
  C          -0.32816398481986     -5.04235238863803     -1.47669073698709
  C          -0.31514472860311     -3.72603205201120     -1.56295894288940
  C          -0.06993370772796     -2.84545402257394     -0.38389582042437
  O           1.16185885545104     -2.15217085271836     -0.59921010694415
  F          -0.55272079162762     -5.81403821255365     -2.54481180182269
  H          -0.18865128153710     -5.62338372838473     -0.57600308044246
  H          -0.45417690458492     -3.24047432601680     -2.51697118635085
  H          -0.00086089385162     -3.43996652738642      0.53517813426145
  H          -0.88418674181342     -2.11459724664939     -0.27560732447728
  H           1.48691455712668     -0.04794163407142     -1.67174261319216
