17
Coordinates from ORCA-job NEB_product E -29.582801162020
  C           2.91674424387054     -1.18641041046550     -1.72701345507207
  C           1.38869251582419     -1.32095987527975     -1.74160126433165
  Cl          3.36469616809647     -0.37279433577038     -0.18938526589498
  H           3.37518122721089     -2.17921690765375     -1.68508528972653
  C           0.84305418915084     -2.24503027153687     -0.69394820168616
  C           3.42586229209721     -0.40991338431373     -2.93164466615633
  C           3.04664113257306      1.02789518346611     -2.95047953562394
  C           2.49956218896036      1.61760199173283     -3.99715448785401
  O           0.71257904892589     -0.74530563691241     -2.55003596043068
  Br          5.40646661403601     -0.55294576854875     -2.97778301913078
  H           3.08757792643310     -0.91322818318745     -3.84103814810980
  H           3.27443996620000      1.58142992250184     -2.05040919135453
  H           2.27391728110345      1.07805160017757     -4.90196623442031
  H           2.24186817048257      2.66172190096195     -3.98202236716688
  H           1.07717153119242     -3.27079741885418     -0.97670208661731
  H          -0.23588583803029     -2.13408820183530     -0.63050279600916
  H           1.29953134187328     -2.04941020448224      0.27237196958515
