22
Coordinates from ORCA-job P E -31.353005463250
  C          -1.08434005041362      0.52807936380760     -2.26309348451585
  C          -0.47675320330851     -1.74946507184231     -0.43494660847119
  C          -1.16502986897097     -1.90049463075006     -1.75434518631667
  C          -1.44106633609669     -0.89824648890386     -2.56921900893575
  C          -0.91517999077203      0.70657859436996     -0.74676406808451
  C           0.06609050551633     -0.33830908372196     -0.20498713164690
  H          -1.43811668936090     -2.91202941139616     -2.01982157581898
  H          -1.93982033861624     -1.06792149987556     -3.51211365497986
  C          -2.16727526284166      1.48650341928848     -2.73501894109247
  H          -1.17583722510114     -2.00690642117653      0.36565994051747
  H          -0.13678615728492      0.77431068155319     -2.75752218634220
  H           0.36142475156247     -2.44778740181834     -0.38084605198259
  H          -1.88079684948240      0.57009428109745     -0.25781993072759
  H           0.19322346922315     -0.17453481093511      0.87971602467552
  H          -0.55341749632111      1.71406743323674     -0.52101973928750
  O           1.32710438368466     -0.25330391348489     -0.83628407759130
  O          -3.33891868866807      1.21303350291013     -2.69282978036064
  C          -1.65576974853052      2.81257417522296     -3.24066855528995
  H          -1.15633609271793      2.65419639036731     -4.19528576479454
  H          -0.93167415256037      3.23197514750656     -2.54622529761024
  H          -2.47970718340637      3.50692426983515     -3.38235448148827
  H           1.66641222446684      0.64300147470925     -0.73882043985597
