22
Coordinates from ORCA-job R E -31.272356857440
  C          -1.39371886197375     -0.05562154205203     -2.72498392848802
  C          -0.10386938252929     -2.59946448840910     -1.70888587868722
  C          -1.33736776021153     -2.47890953443616     -2.19489256592302
  C          -2.00043890984762     -1.22170014928753     -2.46850017435144
  C          -0.68334943787546      1.97397249971904      0.56127230787979
  C          -0.23867293895935      0.79585731680796      0.15209737369999
  H          -1.93085979881639     -3.36352682916353     -2.39072732192453
  H          -3.08341365156196     -1.23805436873711     -2.49533655103904
  C          -2.16240697892521      1.17389386193829     -2.95699856722694
  H           0.33551769155683     -3.56433458686714     -1.51858707663089
  H          -0.31792483312912      0.01915818488822     -2.74959229860523
  H           0.49713296866921     -1.73797884389238     -1.46683864000281
  H          -1.67818539353547      2.08443629922767      0.94487339780395
  H          -0.83472669906728     -0.10588964583569      0.17183919237411
  H          -0.06725488999277      2.85864647950290      0.53312666408863
  O           0.99594789643774      0.54944026913776     -0.35908528354994
  O          -3.37467854220895      1.21148591516071     -2.93215503084365
  C          -1.32544794512052      2.39837018978005     -3.24313872999401
  H          -0.44211524144989      2.41270123408884     -2.61185407742714
  H          -1.92001499529834      3.29310716461035     -3.08660212491561
  H          -1.00593016388094      2.36661363072329     -4.28393980979347
  H           1.53038786772006      1.35125694309559     -0.31804087644350
