19
Coordinates from ORCA-job NEB_reactant E -30.091389766160
  C           1.86040594184185     -0.01622605794969     -0.06166828616700
  C           1.54347329427292      1.11117731631371     -0.68490957196762
  H           2.19446710857331     -0.05019659262769      0.95478286470015
  H           1.76912900551155     -0.94313468497883     -0.59139525432630
  O           1.11975792332597      1.11484705870934     -1.97063817067244
  C           4.28389142619830      3.63583462425459      1.42850253813639
  C           3.53966352415096      2.56233717096417      1.19128404882998
  C           2.04511880923908      2.62695719103937      1.11244665299269
  O           1.56206800869439      2.38659562950049     -0.20138868825494
  O           5.62763345167450      3.72639757465037      1.51371414605385
  H           3.83948090579418      4.60589657223477      1.61057023876777
  H           3.97623131032310      1.59641038540892      0.99420994161987
  H           1.69426233733403      3.63306448074206      1.35406837773634
  H           1.58415254149148      1.91171329675825      1.80562936093598
  H           0.93470712963621      2.02985097299253     -2.21898911667023
  C           6.37678292023702      2.55294135702850      1.29386271971743
  H           7.42179920405327      2.84032405248745      1.39363307309714
  H           6.20044918743497      2.15284856068032      0.29089287615141
  H           6.13532597021292      1.78536109179135      2.03549224931952
