20
Coordinates from ORCA-job NEB_product E -52.076983948000
  C           1.79304259605608     -1.94844830498745      1.09252470113171
  C           3.09980683580749     -2.05725976879836      1.88994645224415
  C           1.89636545001054     -1.83305291184876     -0.42646561874174
  H           1.36315710128443     -0.99014225328089      1.43218172041541
  Br          4.77592019655471     -1.66351123287280      1.03133944771716
  C           0.83547159832292     -3.02490154204984      1.68863782616387
  C          -0.63563100510544     -2.72531572220600      1.52048813196510
  C          -1.23284985222631     -1.71505931110026      2.12484625516834
  O           3.11759802977431     -2.32394107573627      3.04507165296537
  C           1.13869990328650     -4.45171152277697      1.24002614986870
  H           1.05406499453633     -3.02403563389173      2.76707215780749
  H          -1.19512802283270     -3.40717146241866      0.89787745483314
  H          -0.70329597744404     -1.02852024117748      2.76596409461997
  H          -2.28390879675176     -1.53424273466486      1.99562700853342
  Br          0.13735364557085     -1.87137774270963     -1.27992813204237
  Br          2.60155222177203     -0.04830756094244     -0.87527880394213
  Br          2.98594328708730     -3.17381802148607     -1.31625242879117
  F           0.73662689709641     -4.72612064417149     -0.00519147234427
  F           2.44954341566793     -4.73162807461315      1.30049018385708
  F           0.51966748153241     -5.32723423826689      2.03902321857078
