17
Coordinates from ORCA-job NEB_product E -33.325505106430
  C           3.09016000025833     -2.18586950497953      0.73379802287618
  C           1.58599328113092     -2.34306624337694      0.95800317624225
  Br          3.63501785461846     -0.31750920554588      0.57422003618266
  H           3.59428995965343     -2.54984285498634      1.63712788060970
  C           0.91326992649118     -1.20305714302434      1.69637842856476
  C           3.53479391144623     -3.00273998455732     -0.47410448288320
  C           3.00113162539978     -2.48793807042295     -1.76544533682900
  C           2.24581240920019     -3.20999403478085     -2.57186661418215
  O           1.00957387695996     -3.32929333498036      0.59779777697885
  Br          5.51452899052744     -3.01932611903862     -0.53654555632693
  H           3.23638986057104     -4.04250062755115     -0.31570256161345
  H           3.28331711948567     -1.47391453371125     -2.01663837289502
  H           1.96488169263182     -4.22269730177863     -2.33465870892899
  H           1.87023048718199     -2.80864808505042     -3.49651152727606
  F          -0.32626592573561     -1.57459278648783      2.11711111295801
  H           0.78915993700810     -0.34385682993216      1.02482127701466
  H           1.49081499317106     -0.90055333979542      2.57771544950772
