19
Coordinates from ORCA-job NEB_product E -41.404826590710
  C           2.00249465083356     -1.09778849916103     -2.34100928252390
  C           0.50608512298202     -1.29970707693078     -2.09220995008952
  I           2.69843116141713      0.13055245394782     -0.69917555543874
  H           2.56306602398567     -2.03033497024509     -2.26584726191408
  N           0.21281949879912     -2.34337205759103     -1.29448454894556
  C           2.23893214918171     -0.41472241922578     -3.68527215876919
  C           3.59625741313335      0.21784276391961     -3.81699900964898
  C           3.77809027786035      1.47736102920202     -4.16308686965740
  O          -0.32152798013639     -0.55558903868613     -2.55708713149103
  C           2.10107485826955     -1.47354450415012     -4.77825815173971
  H           1.44511044306007      0.32508231502353     -3.84767093184572
  H           4.43291109367484     -0.43848630037665     -3.61746473757015
  H           2.95089737922178      2.13627117265432     -4.36861628943402
  H           4.76358310880394      1.89988890574866     -4.24668594056595
  H          -0.75387788319254     -2.51770850520323     -1.07386218866371
  H           0.91133086094744     -2.95157040604447     -0.90594344633422
  F           3.07540554903397     -2.40020106394274     -4.70013574647840
  F           0.94890984997481     -2.15682586599046     -4.71820627896272
  F           2.17420642214962     -0.94304793294846     -6.00178451992698
