19
Coordinates from ORCA-job NEB_reactant E -41.365387414100
  C           1.96834198350753     -0.05284566278654     -0.08185410106120
  C           1.53960309156112     -0.96355750958792     -0.96141387915748
  I           2.14146829680821      2.01538739096536     -0.41903289008888
  H           2.21475159241156     -0.34191222445791      0.92218119127749
  N           1.42159435814683     -2.29949704117498     -0.61280491755138
  C           2.32428562098667     -0.36610612405560     -5.58621054620514
  C           2.28219463736834     -0.86930598001761     -4.36364904298989
  C           2.06219412691177     -0.05550841645214     -3.12825559126321
  O           1.19243117442833     -0.77022080491241     -2.26520147285193
  C           2.57258442789547     -1.20312264899148     -6.80012664455819
  H           2.19701604943911      0.68412191549913     -5.80024842475498
  H           2.40639942566853     -1.93129317473226     -4.19835760644021
  H           1.62265329190861      0.91597484463014     -3.37711103470747
  H           3.03290462288314      0.10913076723627     -2.64465497739438
  H           0.85793966484687     -2.82952303901133     -1.26033503196132
  H           1.23108132777444     -2.49598737820086      0.35655511765317
  F           2.69569637366986     -2.51017873742441     -6.53274814843809
  F           1.58050385936376     -1.08828447716932     -7.70024609772845
  F           3.69905607441985     -0.83737169935615     -7.43958590177847
