18
Coordinates from ORCA-job NEB E -34.433890845890
  C           1.05503572738084     -0.66747485173513     -0.29990509244793
  C          -0.22937972577721     -1.20425022639485     -0.15969223193776
  H           1.76957824234725     -0.87841851514932      0.48153196967583
  H           1.48049963490429     -0.66796876926839     -1.29569632925950
  C          -1.11294761288954     -1.30301977049338     -1.39564417132195
  C           0.77408281671298      1.17202892625363      0.13565661081954
  C           0.16362993144525      1.05815894188264      1.39578835479664
  C          -1.08259025966565      0.40861112982632      1.49924638779777
  O          -0.82119219088210     -1.17904020325479      0.98738781111474
  O           2.01950797299418      1.73632367264170      0.10857095122825
  H           0.13755761525473      1.43185261079593     -0.70821685755148
  H           0.82161347457141      1.07719612413004      2.25173384480538
  H          -1.84780374622908      0.68622822920918      0.78246026468857
  H          -1.46909559840486      0.24543024505726      2.49551255366123
  F          -1.48405182814762     -0.05917681941731     -1.83852136278773
  F          -0.44954684981933     -1.86708702752422     -2.43227067241687
  H          -2.03229824288582     -1.87511715620179     -1.20971369164030
  H           2.30740063909028      1.88572345964249     -0.79822833922442
