18
Coordinates from ORCA-job NEB_product E -34.464293102530
  C           2.26563214149513      2.16025596915051     -1.20390913234843
  C           0.94618919999569      1.97941461023286     -1.88699493311646
  H           2.43057261577401      1.29044537417720     -0.56154378127257
  H           3.05403012638631      2.17196463211891     -1.96121139658326
  C           0.93137897755421      0.77454081409468     -2.86625503797313
  C           2.33848109844237      3.46166290776030     -0.39450917770794
  C           3.41353583384974      3.36486892785171      0.65478924568171
  C           3.17971934124214      3.35477312894984      1.95289620085378
  O          -0.04657419104596      2.62691883244366     -1.71817896989647
  O           2.62176644788035      4.48800547447959     -1.32801283067495
  H           1.36261032186449      3.63858144071676      0.08265380279836
  H           4.42055934317113      3.31973846619395      0.26314763335692
  H           2.17798063277715      3.40707198176826      2.34782514425901
  H           3.97500022566118      3.28441420930025      2.67486625075398
  F           1.94762783053648      0.86044944417954     -3.75403147872150
  F           1.12977061444973     -0.37179848030802     -2.16789486095514
  H          -0.01656236760882      0.69085931777149     -3.41684690892720
  H           2.60178180757468      5.33863294911850     -0.87828976952669
