18
Coordinates from ORCA-job NEB_reactant E -34.464744777360
  C           1.34424169251102      0.32543970017325      0.00890157480902
  C           1.62489687667353      1.05317760311132     -1.06670079513795
  H           1.55243848755227      0.66017337643479      1.00742148520753
  H           0.88825897137620     -0.64080084447549     -0.08932268646065
  C           1.31294358409549      0.54291801720517     -2.45888810909971
  C           2.67120468809833      5.38374824654943      0.13360122743322
  C           3.18166551929326      4.21912072276514     -0.24256897707627
  C           2.56446348295732      2.90165552855429      0.09328347566714
  O           2.19208065558880      2.27399530505305     -1.12594598384625
  O           3.18165843856192      6.59880794002459     -0.14549573872476
  H           1.78116808770147      5.46142489518766      0.74192767481171
  H           4.06659010543071      4.17488752746685     -0.86198215925879
  H           1.68013929992192      3.03937986947508      0.72764782117963
  H           3.28551445096147      2.25896285010751      0.61962321535830
  F           0.45878252429345      1.37172987726648     -3.10554966441972
  F           2.43232269794076      0.48279606216575     -3.21981152941648
  H           0.86174804464416     -0.46072543976229     -2.44261966709204
  H           3.95948239239790      6.50960876269743     -0.71182116393394
