21
Coordinates from ORCA-job NEB E -41.838353611310
  C          -0.34220215166778     -0.17216180739248      2.74513190881477
  C          -1.11958191031696     -0.20286893449647      1.66332018944689
  F           0.12255422855571      0.98130901917204      3.25007148871610
  H          -0.06965847831082     -1.04015330101370      3.32120794976444
  O          -1.62955970352922     -1.40860151504062      1.27721964390570
  C           0.91421156129223      0.60446064215610     -1.52341858578629
  C           0.36228371264743      1.12320827134510     -0.43934915229990
  C          -1.11632167279328      1.26250164476222     -0.25234225176606
  O          -1.53774019879881      0.95382078782017      1.06968502724356
  C           2.39202893207296      0.45105253391704     -1.71839822269666
  H           0.32722871322242      0.23580321146315     -2.35265891455800
  H           0.96896931840038      1.47474228018738      0.38437186181906
  H          -1.66493101424227      0.67110160052449     -0.99582801489206
  H          -1.39900223014977      2.31492888622229     -0.37167447253695
  C          -1.25974637443836     -1.93888640251161      0.01016631467216
  H          -1.45695268562198     -3.00779664260195      0.07603072360950
  H          -0.19902437943547     -1.77839786388090     -0.19629158237621
  H          -1.86454516562364     -1.51682640493660     -0.79716325486719
  F           3.09887753552652      0.83656676997768     -0.63390761631396
  F           2.70113895114024     -0.85915244967564     -1.92867357270468
  H           2.77197301207045      1.01534967400229     -2.58749946719420
