18
Coordinates from ORCA-job NEB_product E -42.379776387040
  C           1.75081274069627     -1.56866213238294     -1.18824006797677
  C           1.56810061959745     -1.39933396329487      0.29400205475788
  C           1.37829017720173     -0.28845238500409     -1.92924649274120
  H           2.81425095375022     -1.76973639069037     -1.37239792606710
  F           2.22687894421786     -2.39646294486255      0.94577287777012
  C           1.01027539213139     -2.89542097196356     -1.64557375661497
  C          -0.47213230685974     -2.69827942244821     -1.79132759361645
  C          -1.33942119151416     -2.95855595302046     -0.83154306345348
  O           0.96727056816919     -0.60218343694090      0.91529074486439
  O           1.60734973444835     -3.42944686319614     -2.78240095936925
  H           1.20812294871545     -3.63174460471139     -0.85726760164088
  H          -0.79895266875488     -2.35524336461715     -2.76347110498233
  H          -1.02779091608486     -3.31133214503404      0.13777638142446
  H          -2.39647176690855     -2.81842228678408     -0.97258132331040
  Cl          1.54893208717643     -0.48871640964296     -3.69029972851221
  Cl         -0.27050363888238      0.26651451074072     -1.59110854566886
  Cl          2.51270621512862      1.00658027802150     -1.42515482576338
  H           1.37158210777159     -2.90240151416850     -3.55842906909960
