22
Coordinates from ORCA-job NEB_product E -54.718758900240
  C           2.18918554728978     -1.11499559690362      1.41279575986479
  C           1.26845879622344      0.07794010365996      1.57290059261805
  C           2.19422892562095     -1.55479726772477     -0.06622182844394
  H           3.22663851947786     -0.87658835861316      1.67818071995529
  C           1.95594532492259      1.37427092880271      1.99398763553459
  C           1.71333358340745     -2.24256606646184      2.35835529987401
  C           0.46106405546219     -2.93660605405247      1.92438993398552
  C          -0.69982332095813     -2.76342613073976      2.52722930080826
  O           0.08557422028312      0.04777266106592      1.42462718369293
  N           2.83980217798911     -3.24190692696444      2.52090656428125
  H           1.57763048678056     -1.81401174697527      3.36083739719818
  H           0.55751671420024     -3.59645818422527      1.07512544210124
  H          -0.81588005106330     -2.11253478351404      3.37847396169186
  H          -1.58694258936007     -3.26214812508476      2.18195405291202
  F           2.73834630125292     -2.78348421207189     -0.17907982012419
  F           0.95319236623795     -1.63545077698392     -0.57939178477958
  H           2.77891872548326     -0.86513242960252     -0.69601404794942
  Br          3.36973477437159      1.82033783452150      0.72825632923501
  Br          0.66904214506141      2.80741312486408      2.07942950193569
  Br          2.72608223749928      1.06815298224437      3.76733616756421
  O           3.95818533228590     -2.79758656788998      2.53166310238535
  O           2.52106572753188     -4.38529440735084      2.67625853565887
