23
Coordinates from ORCA-job NEB E -36.060904171840
  C          -0.09266831515546      0.80555627176705     -0.35885860174057
  C          -1.47419715627793      0.78145826119111     -0.21610470259973
  C           0.51921181954247     -0.12498713098321     -1.37877392435692
  H           0.37925224440193      1.78278921540077     -0.31742056701901
  Br         -2.26831065043949      2.37287357587020      0.64779922033163
  C           0.33664122581347      0.00718069795498      1.41355503024641
  C          -0.40425445035825     -1.16776618528607      1.38362565590144
  C          -1.82409406226543     -1.06725126168260      1.30857256219017
  O          -2.14159228356342     -0.29296542103577     -0.08840365796410
  C           1.83923900220253     -0.04271605240454      1.51494393643050
  H          -0.05905929647160      0.84253109667456      1.98456932001573
  H           0.07137869912448     -2.06823201183723      1.02440514932122
  H          -2.29628919419733     -0.38713215243105      2.01521071195021
  H          -2.37305871074462     -1.99330815958635      1.19145480413283
  C           0.37233928216974      0.47539027394574     -2.77628883112765
  H           0.01511146756468     -1.09122696778493     -1.34259684554393
  H           1.57633595735578     -0.27818274897650     -1.16745913507013
  H          -0.67801643706138      0.56706340388780     -3.04252791084978
  H           0.86176296853601     -0.16301170547843     -3.50734642283656
  H           0.82780189555916      1.46244844118653     -2.82309423376426
  F           2.36771955977657     -1.15364579866055      0.90973391968974
  H           2.13058656431462     -0.09636788719281      2.57136163531690
  H           2.31415987017347      0.82950224546131      1.05364288734585
