23
Coordinates from ORCA-job NEB_reactant E -36.084057053020
  C           2.36928741644971     -0.21299503008106      0.04259307907991
  C           2.95242541783228     -0.66034711584216      1.14649585061334
  C           1.09144056919367     -0.76831077191830     -0.50447148433925
  H           2.83016175065093      0.59224543171962     -0.50679712422744
  Br          4.62072844059255      0.14403446250021      1.70432385014770
  C           3.01956567689212     -0.89933383245142      4.63022711774134
  C           3.56678099667706     -1.96591985724720      4.07475520608385
  C           3.26540955974009     -2.45633090080309      2.68942463799368
  O           2.41826666052950     -1.59194196094019      1.95096293816113
  C           3.32547485836684     -0.41222835948919      6.00790575151427
  H           2.30054325935944     -0.29180372436311      4.09817314927693
  H           4.28412490058461     -2.56606728347568      4.61509742402013
  H           2.72141355459763     -3.40653008668029      2.75327746934611
  H           4.20299049816729     -2.64066448684966      2.14909507288277
  C           1.24864103597719     -1.16147034452694     -1.97177045464540
  H           0.31028075445892     -0.00714317203259     -0.41953734722132
  H           0.78730067457227     -1.63124065814027      0.08894821584165
  H           1.54162495242224     -0.30036553674487     -2.56806166624271
  H           0.30992733768039     -1.54800244275300     -2.36079393885560
  H           2.01028317903462     -1.93013362286364     -2.08060570167665
  F           4.14595322555349     -1.27294394895250      6.69142232222558
  H           2.40671392238389     -0.31263841096067      6.59931690486164
  H           3.84036135828330      0.55643165289599      5.97211872741831
