16
Coordinates from ORCA-job NEB_reactant E -31.136118358720
  C           1.80375692069252      0.00462430561238      0.02951350197776
  C           1.23702119141027     -1.20417195949863      0.04976613475369
  O           1.77520985401964      0.80859887137030     -1.09108940728150
  H           2.26166129940489      0.41223900906504      0.92298492267170
  O           1.16769728270460     -1.96997630053957      1.18322927339015
  C          -0.53851314069903     -4.51454656972386     -2.73869408650168
  C          -0.64112065558076     -3.31703619840818     -2.19749428160030
  C          -0.04110186385771     -2.95842754537657     -0.87848144570798
  O           0.68855816341202     -1.75405756938955     -1.05341583390819
  F          -1.11102712903113     -4.81013182222852     -3.91531928162421
  H          -0.02907713798437     -5.36811642428029     -2.31440918450102
  H          -1.16420393529261     -2.52558158214505     -2.71198497125806
  H           0.61751149470750     -3.75590828374789     -0.51366296052797
  H          -0.83749186997111     -2.80235073022401     -0.13656029695285
  H           2.64783671002669      1.19016556931591     -1.23675192210109
  H           1.58528281603861     -1.50392276980152      1.91436983917154
