15
Coordinates from ORCA-job NEB E -22.813499234710
  C           1.21869199070341      0.19142248386318     -0.72224734362620
  C           0.69523737570317      1.28291298267541     -0.00653666242232
  O           0.74127400687521     -0.09363850330586     -1.96414209402214
  H           2.27945199456985     -0.02588044064385     -0.65998085428205
  H           1.24327190636278      1.62963348524278      0.87331801360851
  C           0.39126333898529     -1.16615562711972      0.40447971665444
  C          -0.96554138527446     -0.87684937400091      0.26806502463339
  C          -1.44522066840501      0.33528974486824      0.80901258161785
  O          -0.57663531414651      1.49496055410658     -0.07903374070342
  H           0.77084212795377     -2.05961985542909     -0.07059460947492
  H           0.87213998454006     -0.93799428684891      1.34583972802657
  H          -1.49794894148882     -1.30356495282659     -0.57139655856093
  H          -1.11984717446428      0.60229693231803      1.80846726908019
  H          -2.46774892316495      0.61891586930308      0.60089593844309
  H          -0.13923031874949      0.30827098779764     -2.03614640897206
