15
Coordinates from ORCA-job NEB_product E -22.851033997700
  C           1.70016780501157     -1.69374784223915      0.89924104879624
  C           1.16129307037412     -0.28784732789278      0.98930399044082
  O           1.39047798737428     -2.26296197948705     -0.33884283055893
  H           2.79570445862780     -1.65406994796956      1.00663883374400
  H           1.39684615313928      0.24184101324187      1.92732533370460
  C           1.12638328229852     -2.51878297018410      2.07924625119839
  C          -0.36912822103498     -2.46942837912423      2.09108753827589
  C          -1.09024097479736     -1.98430951980240      3.08343752636047
  O           0.50571994203319      0.20990938107948      0.11555240679961
  H           1.45895872854367     -3.54951545753647      1.94018048795686
  H           1.53283629337658     -2.13557392686969      3.01614799486222
  H          -0.84538345044402     -2.85968683316529      1.20191425658109
  H          -0.63459047509812     -1.59356728470999      3.97916032832486
  H          -2.16561573922881     -1.96422461696574      3.04927137840560
  H           0.78747113982428     -1.65033430837487     -0.79156454489171
