20
Coordinates from ORCA-job NEB E -44.714155235900
  C          -0.27544555016788     -0.91388190242193      0.02185603552195
  C          -0.78369420578927     -0.15659827674271      0.98461796184348
  I           2.78010668036222     -1.66128563134830      1.63889319992869
  H          -0.13332684485763     -1.96756854036519      0.18440070626563
  C          -1.48867757653953     -0.73908409536162      2.18622806184128
  C           0.19138600033646     -0.35778538212695     -1.29579726599611
  C          -0.37856270722050      1.00074087623785     -1.44138978421263
  C          -0.47285873199480      1.83758767818372     -0.24401001022973
  O          -0.88215613970075      1.18515849232432      0.95871546313195
  C           1.73133173477457     -0.25787410009103     -1.49304182204667
  H          -0.17933398930573     -1.03290866169394     -2.07827590250688
  H          -0.44536862447568      1.44418989599201     -2.41980772736701
  H          -1.15171240063721      2.68452154263977     -0.37077576260619
  H           0.54646980882858      2.23611135243696     -0.04287242732727
  Cl         -0.98093948224592     -2.36293586884737      2.59791605258574
  Cl         -1.27896329894441      0.30091621940186      3.58770101500013
  Cl         -3.25155152244753     -0.78773182220723      1.74427368486176
  F           2.24314085799009      0.91761649769317     -1.02308817880919
  H           1.98280788755809     -0.30282186618304     -2.55800593211868
  H           2.22734810447686     -1.06636640752034     -0.93753736776022
