20
Coordinates from ORCA-job NEB_product E -44.771096235630
  C           2.11263983290489     -1.04888601135176     -2.36195711930385
  C           0.90233091402287     -1.91663942357027     -2.19474322918143
  I           1.72654954933797      0.52050909972728     -0.91913215725878
  H           3.03069926128315     -1.53923651427319     -2.04219474034764
  C           1.05792446630620     -3.09617497723995     -1.22066881754951
  C           2.23642770227182     -0.47836817989500     -3.77427866500021
  C           3.34543408093171      0.53200200378310     -3.84759868953764
  C           3.16589810324633      1.79505000097646     -4.18215085084728
  O          -0.11984734381491     -1.77068477162929     -2.80188128859148
  C           2.50873613123158     -1.63290296795809     -4.74835729091515
  H           1.28456350889040     -0.02163533024695     -4.06338664848760
  H           4.32838447560222      0.14839952375354     -3.60993459225151
  H           2.19083834022373      2.18733507191000     -4.42073439648069
  H           3.98521322558960      2.49083846978536     -4.22394035639885
  Cl          1.83146478934092     -4.34173047409027     -2.25627794628888
  Cl          2.09548045750987     -2.78134085086729      0.17019212591370
  Cl         -0.51982029720114     -3.66850290824157     -0.67455606277696
  F           3.64406411441011     -2.31055571623967     -4.38383625953787
  H           2.67618103278757     -1.24772663287623     -5.75866294479172
  H           1.68993765512509     -2.35874941145620     -4.75260007036666
