20
Coordinates from ORCA-job NEB E -40.007923289660
  C           0.30173996174460      1.04827378595807     -0.04323594568248
  C           0.34791802309149      1.07272960933796      1.36052831684589
  O           1.42681392583205      0.80527848615415     -0.73316392400229
  H          -0.43488338232507      1.68380569821895     -0.53221669960223
  Br         -1.26762990051729      1.91251953300964      2.12440801555931
  C          -0.59780224005962     -0.88208734034691     -0.10176093220286
  C          -0.70650435560721     -1.36389088918391      1.19825264717730
  C           0.45058518124449     -1.46741267386375      1.96367015150536
  O           0.97029338385568      0.29648617801896      2.09246319410010
  N          -1.79086059996215     -0.62233929757360     -0.86246354845399
  H           0.23402542589201     -1.18886141067094     -0.72344351357292
  H          -1.67272959659493     -1.28538355453554      1.68110430723902
  H           1.37525731370435     -1.75306984375315      1.48327281530715
  H           0.37247227954057     -1.72962790426742      3.00710762704661
  C           1.36723017044991      1.07314700534900     -2.12703735708183
  H           2.35266733670609      0.83470595164359     -2.51994591277270
  H           1.14358565925405      2.12737252912887     -2.30867587419420
  H           0.61065545188434      0.45460346237697     -2.61723532733737
  O          -2.84682831961205     -0.55127372434396     -0.28260568776823
  O          -1.63600571852132     -0.46497560065695     -2.05902235210962
