20
Coordinates from ORCA-job NEB_reactant E -40.041486117680
  C           0.93399468719162     -0.17879540201433     -0.17497695165622
  C           0.95082577915163     -0.87281179328871      0.96207709757848
  O           1.55507642978399     -0.62727942880196     -1.28828024738905
  H           0.42474086622603      0.77548334878535     -0.22277537018855
  Br         -0.06305666009311     -0.19820116238228      2.45283966854882
  C          -1.11677232446814     -4.03113445974427     -0.08713738218428
  C           0.07589941888037     -3.45763959561275      0.00784760247371
  C           0.79604278659773     -3.18029361237340      1.28486286897919
  O           1.61418413645294     -2.02582304134157      1.18560595977685
  N          -1.73072418966714     -4.25257477333937     -1.36523077407495
  H          -1.71156578149479     -4.38002788810884      0.74331873401468
  H           0.58489769613233     -3.13727566505496     -0.89501655476363
  H           1.48956629545701     -3.99896091592229      1.50478555747810
  H           0.09213988380405     -3.07905225008401      2.12333057394084
  C           1.54259708095645      0.25228595929789     -2.39253216277321
  H           2.03464916822900     -0.27865802299916     -3.20455498045662
  H           2.09146818608312      1.17240283938134     -2.17135391244328
  H           0.51896319375046      0.50084656026897     -2.68780301426595
  O          -1.15873088344655     -3.85222710028619     -2.35532167916950
  O          -2.79659576952702     -4.82786359637946     -1.35998503342541
