14
Coordinates from ORCA-job NEB E -30.307442261240
  C          -0.28192759555657     -2.56317445172666     -0.62293696386106
  C           0.72802905770598     -1.70816157391855     -0.29195130989290
  I          -1.84322853812668     -2.69389022691871      0.80632722186378
  H          -0.24087520396568     -3.51482712855039     -1.07044396116941
  F           1.92921152265583     -1.97004961331222     -0.90011640439572
  C           0.44615285735153      2.63119281469922      0.58045691045320
  C          -0.34709606368914      1.56848696252246      0.46200922363241
  C          -0.38571161502104      0.45788315039998     -0.50615084607150
  O           0.51596209041494     -0.48592854912340      0.20010152184962
  Cl          0.92547187130614      3.21441447408061      2.16336212368865
  H           0.77398693255240      3.37569948654648     -0.11694595645518
  H          -0.90910549190766      1.24452764875735      1.34405374074806
  H           0.02577815271108      0.52640796686219     -1.51952019604464
  H          -1.33664797643113     -0.08258096031837     -0.52824510434530
