14
Coordinates from ORCA-job NEB_reactant E -30.362003640460
  C           1.30657568017346      0.19893458095025     -0.29187393569395
  C           2.27555263868290      0.89859211944445      0.27930614288076
  I          -0.68311501646437      0.67630798806263      0.11031437099925
  H           1.49250869046482     -0.63453453287838     -0.93944572771483
  F           3.56214034752251      0.59441010799591      0.00052049976185
  C           2.99809944346984      4.91229831647937      0.07698112558618
  C           3.40811171632714      3.65765286785398      0.16364664881549
  C           3.15541765710726      2.81050209661483      1.37587368017136
  O           2.09272792128980      1.88214031831837      1.15363752129524
  Cl          3.25575823984644      5.88242386794988     -1.31024962280476
  H           2.48410080070039      5.42261231331163      0.87794220636315
  H           3.90975638841874      3.17880280825058     -0.66524027957413
  H           2.80828163552345      3.41559122787862      2.21442024998200
  H           4.06658385693761      2.27096591976786      1.66006711993239
