20
Coordinates from ORCA-job NEB E -46.474665113110
  C           1.09690078379119     -0.36261440970654     -0.34459034463005
  C           0.52404584997383     -0.89319134426725     -1.52901713436160
  C           1.32759999108900     -1.34907651927821      0.77468555399804
  H           2.00115830290615      0.22594695061477     -0.50349790989912
  H           0.83518871521994     -0.46249082002986     -2.48472777158825
  C          -0.25571820700935      0.93892008130226     -0.01084932927384
  C          -1.46039897237741      0.20477084308341      0.02686586573473
  C          -1.84697014818642     -0.51495685268633     -1.13133429518453
  O          -0.59477176960363     -1.52188583505054     -1.46409802781569
  C           0.01049534562960      1.88648251899564      1.12810307444509
  H          -0.06572159038626      1.47954281417814     -0.93932795675145
  H          -1.88036585396775     -0.07941422434862      0.97911461100584
  H          -1.87676800525368      0.03302800220527     -2.06880436474871
  H          -2.68300976433017     -1.19280377093234     -1.01314242027325
  Br         -0.22106003961300     -2.25464556299227      1.48838473030353
  Br          2.49877662944519     -2.77926076396781      0.01778972026844
  Br          2.36624336135909     -0.61604430160053      2.25530031094673
  Br          1.82671788191002      2.60465518654866      1.09346727600238
  Br         -1.18970416947786      3.44437126739130      0.83011665758964
  Br         -0.41263834111849      1.20866674054085      2.89556175423205
