20
Coordinates from ORCA-job NEB_product E -46.526774979970
  C           1.54971466093317      2.29792470432343      1.06162359865618
  C           2.34701030718357      2.34739830324877     -0.25730178102643
  C           1.24015204115771      0.82136003690241      1.26407275161826
  H           2.17634237523144      2.62619654005805      1.89956492136790
  H           3.43053974183651      2.49803075983580     -0.13882154401117
  C           0.30001257021722      3.19761991588440      0.92234304926133
  C          -0.82187941632874      2.88224040589249      1.87321727896703
  C          -2.02217158893737      2.50199410682865      1.47394970111990
  O           1.82648764927883      2.16077544247922     -1.31639438122570
  C           0.68375635639117      4.66475363972308      1.10800076854773
  H          -0.06906653828247      3.08451400357877     -0.10829890034369
  H          -0.61070240305333      3.02970405017507      2.92341590750924
  H          -2.26700590687113      2.36098603605440      0.43391301496381
  H          -2.80571234209681      2.30568229973412      2.18380956039600
  Br         -0.03493128244133      0.13597215495048     -0.02166197174738
  Br          2.91660925062625     -0.19750999406980      1.04271623587960
  Br          0.60004760581313      0.41053500920304      3.06412909207395
  Br          2.11185405550869      5.22821614547516     -0.12010189988003
  Br         -0.86539809613735      5.79898060868181      0.76663344216878
  Br          1.31794095997082      5.03602583104063      2.92279115570469
