22
Coordinates from ORCA-job NEB E -49.566572292140
  C           0.30416028604136     -0.91698567273095      1.28240309699073
  C           0.01222460778654     -1.35449513939848      0.03350605440273
  C          -0.58465720579164     -0.19732692489471      2.20632077564254
  H           1.28733935894462     -1.10208382291522      1.67638781709814
  N           0.90296753251614     -2.08373053257931     -0.68402539215608
  C           0.48074526025135      1.00344794473791     -1.42236811454012
  C          -0.92177809957323      1.13169637254540     -1.20804491163613
  C          -1.79590704438848      0.03195783814803     -0.71853864214728
  O          -1.16255136475915     -1.22514017966160     -0.63436794108558
  C           1.52478054511289      1.48976611657890     -0.49448568977441
  H           0.84146052465463      0.79831380988092     -2.42408217863162
  H          -1.45268770377197      2.04422867080830     -1.45942049159702
  H          -2.62451939828689     -0.13112572162983     -1.42257212573615
  H          -2.26683133105558      0.32544251768982      0.23307309694417
  F          -0.75362458755960      1.13293289737918      1.92171630553156
  F          -1.84591591195235     -0.68214998086208      2.26638363802864
  F          -0.11400765453530     -0.22442931733457      3.45877107471969
  H           0.58285418798438     -2.49886664920717     -1.54012813992507
  H           1.72967663248757     -2.44141912181446     -0.24417310737484
  F           2.49758826983101      0.54508379776208     -0.28632643603784
  F           2.21329978362366      2.55255065951566     -1.02622002846455
  H           1.14538331244005      1.80233243798217      0.48619133974847
