23
Coordinates from ORCA-job P E -34.972978827200
  C          -1.51703618640474      0.28605423512886     -2.13920489637220
  C          -0.33018762467203     -1.72730817823257     -0.25489212103934
  C          -1.25012301719797     -2.07591455586107     -1.38509434810905
  C          -1.77706788708809     -1.19373813696027     -2.21552330627791
  C          -1.01307024090828      0.65553976421403     -0.74088474848188
  C           0.11880047218908     -0.27550470465278     -0.30747931847026
  H          -1.47333901309919     -3.12755963849233     -1.48909376961589
  H          -2.43263530620743     -1.51652843029713     -3.00802611694821
  N          -2.74085806163060      1.02862397668629     -2.41956961210130
  H          -0.84428363633619     -1.90736437007373      0.69366553559039
  H          -0.73184644531705      0.53565395124608     -2.88584039718746
  H           0.54133555336571     -2.38658742281729     -0.28406042367460
  H          -1.84077655926725      0.55908252875656     -0.03694532947487
  H           0.51109016264769      0.05391091442581      0.66152352127262
  H          -0.65872857178092      1.68877592353465     -0.72863779281227
  N           1.24446778724842     -0.09159288694564     -1.26726560569104
  C          -3.05741938848717      1.13388224144473     -3.82966887848094
  H          -2.65324154748029      1.96386670899248     -2.03283991054368
  H          -3.27338809423086      0.14447004822271     -4.22973752026671
  H          -2.24286965767841      1.57473331713571     -4.42507716967424
  H          -3.94763163391210      1.74957790394080     -3.94133499410742
  O           1.64646900294048     -1.04532317661742     -1.88313351022082
  O           1.68823989330720      1.02956998722150     -1.35342928731294
