23
Coordinates from ORCA-job R E -34.894273754200
  C          -1.16661909544385     -0.12330178483684     -2.90554496358212
  C           0.11048688357677     -2.41724845007408     -1.42428413561780
  C          -1.19653110608852     -2.18054271168285     -1.53050476450447
  C          -1.82501691792865     -1.03558441386539     -2.14588473333645
  C          -1.48560256642009      0.49887371740130     -0.07823068461292
  C          -0.24233189865590      0.18762378334524      0.29758837127556
  H          -1.88463324364025     -2.88523353603837     -1.07989068726208
  H          -2.90073435101822     -0.98619490239418     -2.06439172140476
  N          -1.71190741285936      0.91074267385700     -3.58305614724554
  H           0.48018704629541     -3.29618061909076     -0.92609765597139
  H          -0.09776607205749     -0.20411761255598     -3.03397036051671
  H           0.86022854730007     -1.76538764615517     -1.83769280748508
  H          -2.34144177995468      0.03893191543762      0.37973985295124
  H           0.01998796885814     -0.56198043568801      1.02580343303274
  H          -1.64816933876209      1.31983270163695     -0.75433994809205
  N           0.86756376065272      0.80455677028211     -0.32092061096195
  C          -3.10182312445202      1.27532671844278     -3.49571193540737
  H          -1.07540428475499      1.63377600711850     -3.87690444256070
  H          -3.37033463471878      1.67612183018055     -2.51162250930850
  H          -3.72154027576783      0.39974512396095     -3.69173050294956
  H          -3.31909696830112      2.02943209452303     -4.24899997330985
  O           1.97510546518648      0.55092074645210      0.11931615467248
  O           0.66300339895425      1.54493802974350     -1.27338922780274
