23
Coordinates from ORCA-job TS E -34.887936011720
  C          -0.17011639963733      0.16069701964671     -1.03003485283609
  C           1.30978028349471     -1.84805305904667      0.43401625785487
  C           0.00905198764231     -2.00681341827052      0.07608632394760
  C          -0.71502726568685     -1.05442087443764     -0.65883189615270
  C          -0.00967220248182      0.85471819087384      1.05458606215326
  C           0.88344491943925      0.07965578254164      1.74472892034518
  H          -0.55452606999805     -2.82433323629073      0.50538208808269
  H          -1.77222445305113     -1.22365864362199     -0.79334719945928
  N          -0.83834548274454      1.11004876632083     -1.74303476633539
  H           1.78440421141783     -2.54845054035306      1.10068175381262
  H           0.90377395582263      0.26032749049608     -1.09882209725483
  H           1.97851627820123     -1.22323964498969     -0.13033567840164
  H          -1.05526738799525      0.79854868526067      1.29652380182593
  H           0.61363338600212     -0.60561084720838      2.52958497193520
  H           0.35119867873712      1.77179949927753      0.62079196966094
  N           2.25635041993599      0.39407401571487      1.68870202098485
  C          -2.27849058452262      1.20084349109259     -1.75342360500214
  H          -0.35200850888696      1.98365963792009     -1.86760481335020
  H          -2.69578101239291      1.31664601595978     -0.74688476691872
  H          -2.70229364807629      0.30287148850809     -2.20423575592843
  H          -2.57439460598772      2.05661741578568     -2.35493724587956
  O           2.98475672898873     -0.08454364465135      2.53971951061015
  O           2.64323677177956      1.12861640947165      0.79068899630569
