21
Coordinates from ORCA-job NEB E -33.810845507220
  C           0.75682124657548      0.81302021607414     -0.71487161552149
  C           1.96418448969042      0.38712457644114     -0.02487572612067
  F           0.63450173254757      0.33092278106212     -1.97735989531019
  H           0.65159903238481      1.89969884989297     -0.76086968924184
  C           2.61514785176465     -0.79682515950792     -0.43027579946001
  C          -0.55876051821222      0.29020185736321      0.22266800224258
  C          -0.14501656924589      0.19770586923082      1.61250117127792
  C           0.79085196388004      1.16926926032549      2.04699143760595
  O           2.11549422648342      0.81945713762698      1.19151118231573
  C          -1.15045894323892     -1.00050668390498     -0.34516470722208
  H          -1.24759697284515      1.12348079861696      0.06217808557904
  H          -0.02974334261643     -0.79885406229871      2.02076290298939
  H           1.16638417559894      1.08511586172797      3.05992469610241
  H           0.58853754595614      2.20179276839966      1.76739368346140
  N           3.21623987059485     -1.71047517116449     -0.78663390988537
  C          -2.15266761941953     -0.75132277648493     -1.46637197321886
  H          -1.65222306372133     -1.53130956953475      0.46659661601076
  H          -0.34526533845699     -1.64298818308868     -0.70817637765060
  H          -2.97417406948564     -0.13118911995375     -1.11212728359999
  H          -2.56333639815967     -1.69619282230116     -1.81266858484372
  H          -1.68051930007456     -0.25812642852210     -2.31113221551036
