21
Coordinates from ORCA-job NEB_reactant E -33.849747790370
  C           1.02047402531908     -0.72252762726135      0.00406374998282
  C           1.83270449683750     -1.04477541141447      1.02041168989218
  F           1.47597195842570     -0.70204108076868     -1.25849843162321
  H          -0.02462635040179     -0.47068638047494      0.07122010973881
  C           3.19608774489976     -1.37504893191977      0.76522164445398
  C          -2.01064193742909     -1.49360505104412      1.74450567029782
  C          -0.82261609941344     -1.78847590586055      2.24531636915521
  C           0.17900497394238     -0.77246247325626      2.71032057871018
  O           1.50914236974918     -1.08995386921395      2.33402088366523
  C          -3.01433849957940     -2.49945459272995      1.28525837330836
  H          -2.30873555836377     -0.45736377980200      1.63423043556827
  H          -0.50950324593554     -2.81693230305138      2.36376127484953
  H           0.22052750125945     -0.76415703822694      3.80514848562253
  H          -0.08687780149910      0.23383929660807      2.36069738002871
  N           4.28971482450189     -1.63477436601641      0.55233297781489
  C          -3.31747606742216     -2.32509112119655     -0.20349023417209
  H          -3.93842715834813     -2.36557819590708      1.85413761637226
  H          -2.64200615246817     -3.50786445077072      1.47126839294434
  H          -3.69926150255666     -1.32606442033245     -0.40256399067775
  H          -4.06297884810869     -3.04810067227795     -0.52415047673519
  H          -2.41643867340901     -2.47518162508253     -0.79411249919689
