22
Coordinates from ORCA-job NEB E -46.335422820770
  C           0.14924580592335     -1.18028551133455      0.06374126732144
  C          -1.15028118218870     -1.49928583516158     -0.47966620092908
  C           0.19734962836294     -1.01146510611154      1.56897379402365
  H           0.94851333599752     -1.86513930164277     -0.22198223921341
  C          -1.19069061873183     -2.41065305682724     -1.56659654725689
  C           0.56417713029207      0.37706822506523     -0.69497452451640
  C          -0.57189733878888      1.21127069810089     -0.42326415328973
  C          -1.82713516513793      0.81453408797090     -0.92570935442575
  O          -2.12950741524492     -0.69144275048846     -0.25551685718849
  O           1.83087617432126      0.71960078019692     -0.29881033371460
  H           0.64043910216919      0.03421858610781     -1.73049763246017
  H          -0.55177578301269      1.84972053544210      0.44525784337208
  H          -1.88715508585471      0.53153877234627     -1.97199746382312
  H          -2.68379187324153      1.38458819449652     -0.59098651332483
  F           1.45008476482223     -0.85378043739316      2.02088642824669
  F          -0.51222956137314      0.00922525016209      2.05864212924295
  F          -0.27001339597332     -2.11860032225848      2.16972156679030
  N          -1.23839744086597     -3.19682083406292     -2.40247806414262
  C           2.00311025667820      1.77143342926065      0.63280160590681
  H           1.66713736720663      2.72241641127680      0.20834469594020
  H           3.07452317713673      1.81040144288532      0.81617007950260
  H           1.48741811750350      1.59145674196920      1.57794047393839
