22
Coordinates from ORCA-job NEB_reactant E -46.369912323780
  C           1.59507734573656     -0.08923135826302     -0.04744942100405
  C           1.52844374958867      0.32481057094123     -1.33067300620493
  C           1.32414341564617      0.63894039703073      1.22262407504491
  H           1.86222795167902     -1.12126947393097      0.12179869614117
  C           1.82740599539230     -0.70257436894092     -2.29268039344700
  C           2.82823228847256      4.35779524992624     -1.92655729380468
  C           2.42844406721594      3.38479669007684     -1.11230117025565
  C           1.09561640578080      2.72540405366944     -1.27362994927555
  O           1.22479359682513      1.46144189612401     -1.94156971160004
  O           3.98664047897042      5.03540141144646     -1.91416462320245
  H           2.19140529153626      4.72689837380701     -2.72059215636636
  H           3.05950559321056      3.00591390276341     -0.32542923108037
  H           0.46238099585745      3.30549849398636     -1.94876087098573
  H           0.58169727510307      2.61308152580206     -0.31858686046681
  F           2.14247748355266      1.68767396839244      1.45234044116804
  F           0.06967014266879      1.13179579063430      1.31410161662634
  F           1.47598063469487     -0.17939033305877      2.27078845537193
  N           2.06818575923684     -1.52478407533313     -3.04907847772649
  C           4.94456371970885      4.68767926974858     -0.93775791328060
  H           5.78973026935772      5.35455741226844     -1.09599234602853
  H           5.26944437443537      3.64986331256265     -1.05600330677424
  H           4.54763316532999      4.82939729034664      0.07147344715108
