20
Coordinates from ORCA-job NEB_product E -34.621025051170
  C           1.39528555539762     -0.94809683955016     -0.92706237635207
  C           2.41841864609324     -1.15692899008597      0.18954641615279
  O           1.60690468598217      0.29363504448982     -1.53461911764345
  H           0.38900565896715     -1.00517930705432     -0.47992627658992
  O           3.45913324153375     -0.35080196015762      0.08981437224659
  C           1.54050580077220     -2.14640479802616     -1.92222308675609
  C           0.89318779432717     -3.38995759589499     -1.37400479066364
  C          -0.03804697474602     -4.06727924069409     -2.01725817994838
  O           2.29137807652998     -1.99118574426464      1.04607470282425
  C           2.94068299251872     -2.41108203136278     -2.16939186036548
  H           1.07521115726561     -1.86423421028521     -2.87402332087743
  H           1.24524331253826     -3.69436555742325     -0.39872960577499
  H          -0.48224096064697     -4.95167527319008     -1.59515825249491
  H          -0.39371150777024     -3.77401819705147     -2.99239254840663
  C           0.48998419867025      0.81927015070029     -2.20920983197064
  H           0.78668546791740      1.80821236740383     -2.55099962799211
  H          -0.37330660545321      0.90648473231858     -1.53857265615845
  H           0.20432958593719      0.21266124740921     -3.07627317518876
  H           4.11309751280838     -0.54018745223088      0.78299028129902
  N           4.04165236135733     -2.64826634505012     -2.36188106533969
