26
Coordinates from ORCA-job NEB_reactant E -52.579699812990
  C           1.48334682111566     -0.04096465680966     -0.36315390080278
  C           1.38038603229664     -0.47635760512764     -1.62798758842083
  C           2.07871230274500      1.20243235980410      0.20717797807974
  H           1.06672497241957     -0.68876446964619      0.39067684027726
  C           0.73817953276164     -1.81627075320261     -1.89830232494295
  C           2.60334479901287      0.72472315862244     -5.30617729236591
  C           2.91216807175823      1.51329385126486     -4.28950202272318
  C           2.52612983445461      1.25426009058773     -2.87290100958734
  O           1.78378218910200      0.05316369557914     -2.79321196379829
  C           3.00895401211749      1.01473825958935     -6.71331587720540
  H           2.03503139475373     -0.18367911957018     -5.18623165486067
  H           3.48280685761017      2.41913325359723     -4.44083179430161
  H           1.93376647865664      2.10506962205059     -2.51301093337501
  H           3.44118762041016      1.19010573981804     -2.27108813602095
  F           3.42267068949063      1.31883050116791     -0.02522895325608
  F           1.53461576454384      2.34845996594409     -0.30114420566086
  H           1.94439165807943      1.24611199988492      1.29726680789387
  C           1.80522054371861     -2.90945424656575     -1.96562412132951
  H           0.21957614013765     -1.75863715178672     -2.85565319692108
  H           0.01472408801973     -2.04994560134723     -1.11896619334892
  H           2.52805220126446     -2.68450702000860     -2.74550933148530
  H           1.34453080658782     -3.86874383524309     -2.18571395035081
  H           2.33112160848625     -2.98486160441540     -1.01703581110938
  F           3.76923176086880      0.03063825779474     -7.23006995192402
  F           1.94546439206013      1.12637910351616     -7.53122473278244
  F           3.71217942752825      2.14754620450177     -6.84863667967753
