17
Coordinates from ORCA-job NEB_product E -33.744486977930
  C           1.54422891990814     -1.58488905472144      0.13937522576606
  C           2.74655624356289     -1.65590357944576      1.07726502865432
  N           2.01785896608625     -1.23807494170272     -1.23408984850860
  H           0.86978450549873     -0.78449091367029      0.46573930608451
  C           2.30814439989384     -1.69239408425498      2.46530924102849
  C           0.82655586830644     -2.94729255100761      0.12912135395851
  C          -0.49831547872997     -2.84352223425072     -0.56536703869466
  C          -1.65601637112699     -3.04223021779416      0.03431829753867
  O           3.89334634134406     -1.70216383050841      0.74081827321959
  H           1.46858800530665     -3.65986264010703     -0.39762653681244
  H           0.68417337487478     -3.29092261267013      1.15574584503189
  H          -0.45505653807610     -2.59011888295633     -1.61605902457652
  H          -1.71770407601062     -3.29720877926625      1.07973549738392
  H          -2.58893596351549     -2.96809880840301     -0.49600150284352
  O           1.86384023258714     -0.09193868186684     -1.57043873136145
  O           2.52125930100351     -2.11409786583268     -1.88272121970651
  N           1.94629226908672     -1.72739032154163      3.54947583383771
