17
Coordinates from ORCA-job NEB_reactant E -33.743490826570
  C           1.85681334087367     -0.01240516772754     -0.02498918313360
  C           1.20469859064911     -1.05951369767302      0.54284429626366
  N           2.14519570738349      0.08425937418371     -1.40989229640111
  H           2.19792148106913      0.82202885347024      0.56648842475222
  C           0.99511477086219     -0.97464968483195      1.95679258721001
  C          -0.04964105061158     -5.54148842314975     -0.09531409849136
  C          -0.13649192127151     -4.26464883006708     -0.41099787439098
  C           0.08615627332156     -3.14589300532667      0.56018073810193
  O           0.77707339635934     -2.10942977118658     -0.13236826102605
  H          -0.23440065350532     -6.31395842430920     -0.82023335361892
  H           0.19715686496230     -5.86801400085801      0.90177776692244
  H          -0.37516255379524     -3.93705552566943     -1.41194652231205
  H           0.66510211279459     -3.48271363929419      1.42898303047276
  H          -0.88029989295069     -2.75851582726972      0.91724092608553
  O           2.75203464033023      1.07851877582196     -1.75903374047189
  O           1.77934695617338     -0.80249816460171     -2.15152370166409
  N           0.82628193735533     -0.90782284151105      3.08689126170151
