21
Coordinates from ORCA-job NEB E -42.282467941640
  C           0.56626043933633      0.98442317753919     -0.06718460846978
  C          -0.74070085481722      1.21021054079760      0.43614800981576
  C           0.80280816445334      1.26140878700453     -1.44512869511571
  H           1.39473464909483      1.28821501834067      0.56829052327811
  C          -0.92430429087107      1.53695318679780      1.88870941930821
  C           0.54804174619789     -0.92479171089432     -0.06597720157737
  C          -0.53850516281453     -1.24486048099579     -0.89022925648050
  C          -1.82210372756242     -0.80545877724417     -0.45990364582069
  O          -1.75779434622597      0.80124571993761     -0.25440660192249
  C           1.92183116077719     -1.37450985959813     -0.49917729643596
  H           0.44092387475838     -1.06865756082195      1.00752105961106
  H          -0.35669817154868     -1.35775301246439     -1.94864718561197
  H          -2.11953607410455     -1.09983334386394      0.54429077035987
  H          -2.62666661245221     -0.91497781338809     -1.17632592499951
  N           0.97255786894423      1.51954782390543     -2.54593384296906
  H          -0.72705803544916      0.65063976485412      2.49820130901704
  H          -1.95008538059794      1.84920038889377      2.06555318959789
  H          -0.24483310018096      2.32414486397030      2.20334539780371
  F           2.90207853790230     -0.66507415948834      0.08755922660057
  F           2.12882321785156     -2.65462636592956     -0.13380076852698
  F           2.13022609730868     -1.31544618735235     -1.81290387746221
