21
Coordinates from ORCA-job NEB_product E -42.329381550880
  C           2.91739488156413     -1.96973889913176      0.79178695472682
  C           1.63967933081034     -1.60718744716764      1.58418444364156
  C           3.23812822298567     -0.93967537700825     -0.16752259298152
  H           3.73171018892875     -2.01021591213003      1.52997807356365
  C           1.54526615274240     -0.16494206132984      1.97312561949203
  C           2.75896223056614     -3.35324648037793      0.12342038853677
  C           1.90202767966506     -3.28394306317352     -1.11239836194797
  C           0.71451417550666     -3.85007260526560     -1.19770437759764
  O           0.82531665006726     -2.44196093643905      1.85969079133893
  C           4.12452762676660     -3.93189989069016     -0.22662876456761
  H           2.30092632155400     -4.02877672011499      0.85562631794448
  H           2.32406242067261     -2.72232246212249     -1.93494141361784
  H           0.28734310777779     -4.40103478060358     -0.37664777865655
  H           0.12015774625295     -3.77371854455590     -2.09089409741656
  N           3.47387054622832     -0.11635078609576     -0.92331115884597
  H           2.48991171304058      0.19672674608098      2.37260169472214
  H           0.75040537443642     -0.02682313372380      2.70149481655483
  H           1.31685356156875      0.42175123335508      1.08333923529089
  F           4.92907102091211     -4.00254920799691      0.85160518912688
  F           4.02536364458639     -5.17723051433233     -0.70662341315171
  F           4.78700740336706     -3.21458915717653     -1.14168156615561
