21
Coordinates from ORCA-job NEB_reactant E -42.324959768370
  C           2.37277949032395     -0.62048825794075      0.15920944787104
  C           1.64022950023698     -1.28549439534857      1.07098674208028
  C           2.59791156273843     -0.95789314525708     -1.18137028500421
  H           2.86289838086425      0.29325936075871      0.46403846900359
  C           1.48934100253844     -0.78026513247331      2.47333854112004
  C           3.21292585834764     -3.94582880760517      0.14400094976319
  C           2.21517470854313     -3.75358936311042     -0.70309421698482
  C           0.92619802530049     -3.08259715431582     -0.34206814748664
  O           0.93956649734491     -2.42840098036931      0.90607993687372
  C           4.48930844127153     -4.62195975893975     -0.23614888167389
  H           3.18707450919065     -3.62540421852153      1.17494248230383
  H           2.28436244242668     -4.08937817238798     -1.72765180631924
  H           0.14396436355641     -3.84564921119413     -0.25089810918919
  H           0.63580462281262     -2.39146486380114     -1.14265428324137
  N           2.81640750108341     -1.17883806068746     -2.28826413085176
  H           1.62616742668347     -1.60063631319632      3.17456441370803
  H           0.48092052387039     -0.39351317460509      2.61551079024958
  H           2.20427914146267      0.00706270267030      2.68776249732091
  F           5.54699786025055     -3.80023530651082     -0.11057634860411
  F           4.74654346774483     -5.67663596500300      0.56265550584401
  F           4.50334467340858     -5.08334978216133     -1.49036356678297
