29
Coordinates from ORCA-job NEB_product E -45.337720529210
  C           2.32723734913571     -0.41439483023855      2.18566503003697
  C           2.53300849367293     -1.69933542143594      1.37716908703408
  C           2.04097149321335      0.68045043610744      1.13481618937403
  H           1.44849684005687     -0.51381633873367      2.82976719735147
  C           1.28744618911390     -2.52840645498071      1.18512545125076
  C           3.59119854933944     -0.12822685326198      3.02539241596159
  C           3.82244044477088      1.32601253687031      3.31837071828642
  C           4.78374348350147      2.03496523796576      2.75671244110345
  O           3.60287331666055     -1.97027798344145      0.89570012413627
  C           3.56858855835551     -0.89009120196396      4.34236537236507
  H           4.44462268048263     -0.50814567021344      2.44309389996621
  H           3.15780990814188      1.77664949755504      4.04354828340643
  H           5.46578083433855      1.60542428800944      2.04106802190293
  H           4.92602878521111      3.07565122540034      2.98964831374040
  C           1.11770434465032      1.77790684033819      1.64796697002746
  H           1.57095077624360      0.21278694777624      0.26589103931871
  H           2.98556399054325      1.10874702469509      0.79731769966751
  H           0.17325142186330      1.35746215436540      1.98695152941079
  H           0.90917149058989      2.48508978366361      0.84900768138850
  H           1.56834524042945      2.32169535211277      2.47235291758513
  C           1.50146145817214     -3.66653761368641      0.19746079279929
  H           0.47657194613347     -1.87282389768144      0.85868034838697
  H           1.00253571473721     -2.92932000879334      2.16176825043509
  H           1.77119825306877     -3.27392730610271     -0.77972892579234
  H           0.59723742186691     -4.26123804987766      0.10163930788693
  H           2.31023815515977     -4.30652317578924      0.53986985924632
  Br          5.22399591605683     -0.56040495506862      5.33574991546077
  Br          2.08234003456628     -0.33630670276374      5.48687584512370
  Br          3.40958690992404     -2.82156486082677      4.10705422313908
