15
Coordinates from ORCA-job NEB E -29.711548675060
  C           0.08250011091367     -1.44424591333486     -0.38670205137070
  C          -1.23099073860758     -1.05476603277289     -0.23206065857918
  I           1.07441120353429     -2.27305768090971      1.29645381280569
  H           0.40143177626103     -1.91935109428987     -1.30268978889655
  Br         -2.17778669998301     -0.86057910326665     -1.97447082512497
  C           0.90904692609687      0.46686382011655     -0.53192208992509
  C           0.35876522733058      1.04000310366046      0.61556149612622
  C          -1.01609363518944      1.24984334872081      0.71884324341809
  O          -1.69850323288566     -0.41699254572528      0.72382369090193
  O           2.22138661347030      0.21943313791227     -0.65936394710563
  H           0.45931480880155      0.65486850119902     -1.50134481144739
  H           0.94232319539608      0.99098959691710      1.52699030083382
  H          -1.56360891222043      1.57413428288264     -0.15718562126779
  H          -1.41279226050757      1.60806130423952      1.65618725266954
  H           2.65059561758933      0.16479527465087      0.20787999696202
