15
Coordinates from ORCA-job NEB_product E -29.746735277100
  C           3.03552324231188      1.23041220848213     -1.03174600578648
  C           1.56492235629962      1.11104018258378     -0.91699343314001
  I           3.95590980121873      0.01956115696357      0.50411920662960
  H           3.38746964158644      0.83949878719995     -1.98815666417874
  Br          0.68424748172380      1.81945135542927     -2.53393627533756
  C           3.49074882252080      2.72096772509471     -0.91698414625738
  C           2.92700754045161      3.34043812827492      0.33155138057295
  C           1.91137645353706      4.18185871353151      0.33980549374938
  O           0.89782520261251      0.70158611595636     -0.03756907709096
  O           4.87542796629183      2.81917778181631     -1.00899932043352
  H           3.10363486900527      3.23893117483550     -1.80332450684739
  H           3.41235768062515      3.04292067827124      1.25288734257132
  H           1.42164015946722      4.49533553303607     -0.56783285866631
  H           1.52842828402716      4.59307401512518      1.25732473414272
  H           5.28038049832093      2.53634644339949     -0.17644586992761
