23
Coordinates from ORCA-job NEB E -32.963375604960
  C           1.29644323286511     -0.62106554062640      0.80692229081647
  C           0.20118199010662     -0.83988456254446      1.72729192459850
  C           1.27977841039232     -1.09538468154890     -0.60709741294252
  H           2.26128934921922     -0.36427550819702      1.22464525242898
  C           0.15134174908343     -2.07872239571266      2.33410257982059
  C          -0.36068542272383      1.88017193367313     -0.91700140778154
  C          -1.11609832343360      1.43208858103515      0.08449935009041
  C          -0.64766748174972      1.37197479354905      1.50296370802391
  O          -0.73851315199757      0.06860533798974      2.06523951754628
  N          -0.71194375663807      1.85963360399025     -2.24698445395383
  H           0.63950960026739      2.24749255723694     -0.72700944943646
  H          -2.11737073651776      1.06798144321026     -0.09631785177183
  H          -1.29445089662328      1.97452990986490      2.15043086910649
  H           0.38511976843573      1.73403617800351      1.57313398713766
  C          -0.01103966345765     -1.79957012865744     -1.00428770256324
  H           2.13083773801366     -1.77026075508083     -0.76926995857284
  H           1.44051589921062     -0.23838296726512     -1.27672794577998
  H          -0.17115277509740     -2.67809572884757     -0.38318376521057
  H           0.03886698733879     -2.11289790904867     -2.04438197843597
  H          -0.86089041867741     -1.13170415522132     -0.88718449146673
  N           0.18829625185503     -3.15775057686039      2.76244822077358
  H          -0.29556055245332      2.56212015265570     -2.83575821301003
  H          -1.68780779741831      1.68936041840216     -2.43647306941731
