23
Coordinates from ORCA-job NEB_product E -33.052503702270
  C           1.25265737459345      1.21088863458149      0.79723262156505
  C           2.18551895202762      1.62111287779363     -0.31697334673352
  C           1.70621577556288     -0.13948483151085      1.38946004626629
  H           0.27414771474896      1.04400465569674      0.32329368278415
  C           2.31352830928771      0.57849564780696     -1.32869459043568
  C           1.05040616464543      2.31430359153200      1.86166581677449
  C           0.28221912307424      3.46753851592971      1.26300403779787
  C          -0.91899496122363      3.84154890038029      1.66072059656741
  O           2.76212188095116      2.67281142574093     -0.43254875330068
  N           2.32093914727980      2.73214992809646      2.44091172110420
  H           0.45594132928734      1.87687558125745      2.67450700552270
  H           0.80462920138326      4.01544860093254      0.48975700938823
  H          -1.42594852601097      4.68825995959866      1.22982820450948
  H          -1.44971317009167      3.31187405134393      2.43583218052069
  C           3.15549729320877     -0.12899432527950      1.86050700628750
  H           1.57209987383123     -0.91884460840856      0.63456641358968
  H           1.05175671409708     -0.37520748926058      2.23045935996553
  H           3.83435039589234      0.00775406876507      1.02042879029809
  H           3.39550780329077     -1.07492680016425      2.33983046395476
  H           3.31072699622824      0.68068420868906      2.56788440039758
  N           2.40296238159411     -0.22764559493606     -2.13626710176460
  H           2.15352249953951      3.41862427189098      3.16847128902980
  H           2.89350772680239      3.17212872952387      1.72642314591098
