19
Coordinates from ORCA-job NEB E -33.811510147270
  C           0.48494892835739     -0.17886591169359      1.19794948162523
  C          -0.77770045812674      0.39049131863281      1.29791358291783
  H           1.33477706464443      0.48240200529417      1.20816241688904
  H           0.65156826921244     -1.14209797261414      1.65711015213399
  N          -1.87922862207606     -0.38013351235373      1.61980703043721
  C           0.46099696574802     -0.45527300852156     -0.78033933506330
  C           0.19751957898023      0.81254756792966     -1.27884136630400
  C          -1.03945686367709      1.41835378062058     -0.85952392458126
  O          -1.02557145706745      1.53832540108376      0.70839112012483
  C           1.79323785755786     -1.09406198855413     -1.07105407533597
  H          -0.33836448353792     -1.18875947345827     -0.77123217804796
  H           1.03447865270277      1.46447972777097     -1.48136156360058
  H          -1.92649383312245      0.81068780207125     -1.04049719897606
  H          -1.18529061664233      2.44660968725529     -1.17130691647306
  H          -2.74306474132255      0.12533577712594      1.73609443630266
  H          -1.73726483332764     -1.14610253048042      2.25623071863922
  F           2.83330854486060     -0.32478501854819     -0.66820152716844
  F           1.92354120616180     -2.27621972747932     -0.41414505507291
  H           1.93805884067467     -1.30293392408109     -2.14515579844651
