19
Coordinates from ORCA-job NEB_product E -33.872600768130
  C           2.52226227052967     -1.61608089089740     -1.53208912322490
  C           1.50723789517031     -2.73805369998908     -1.36233626349273
  H           2.13253744597405     -0.71796516217479     -1.04796343788219
  H           3.45134295832800     -1.89775312156183     -1.03089842391554
  N           1.25659949365991     -3.04987508430273     -0.07122823128191
  C           2.80128901671267     -1.30579852269640     -3.00826841896601
  C           3.61616388751049     -0.05086438110926     -3.14153805987287
  C           3.20844418586684      1.02682433368150     -3.78217206786264
  O           0.96309673375219     -3.30296092686626     -2.28329469592464
  C           3.54135510402779     -2.48255522669956     -3.64980739700521
  H           1.85247989665353     -1.20309812379667     -3.54284032853053
  H           4.59210802807574     -0.08781196336433     -2.67652360774437
  H           2.24337626239038      1.07240267506389     -4.25940228164254
  H           3.82315483338233      1.90671288740097     -3.86040811736386
  H           0.60042168084232     -3.78557862486748      0.13178085503228
  H           1.71748418540816     -2.58972345060606      0.69264264175707
  F           3.84901109434726     -2.21433280668499     -4.94094245098190
  F           4.72778200770739     -2.71209147968394     -3.02491522027979
  H           2.95875301966098     -3.41369643084560     -3.62449537081773
