21
Coordinates from ORCA-job NEB E -42.267412079990
  C           0.85482270273266      0.47955600697539      0.23489169979183
  C          -0.21156137946430      0.41217556546814      1.14535408791968
  C           0.87570150910593      1.69226766221069     -0.66734314717925
  H           1.84317797818690      0.20712921245950      0.59270655788418
  C          -0.07978373624831     -0.38873322494796      2.42165557940848
  C           0.30410140263292     -0.96842615211366     -0.92831957503335
  C          -0.97239386632263     -0.55637577665508     -1.34013708996301
  C          -1.97247367224476     -0.42645858155420     -0.33859557278161
  O          -1.41081651060798      0.68839043831083      0.72149555201048
  C           1.32463989415991     -1.12817350288968     -1.91266940537362
  H           0.36806168682687     -1.74965879540262     -0.17317144884679
  H          -1.06200837923169      0.01257456159961     -2.25394360528686
  H          -2.10339448798095     -1.27490159579275      0.32886924717864
  H          -2.91579697000636      0.00767966869010     -0.64569008662337
  F           1.36355156305262      2.74301641684078      0.04424214603496
  F           1.70284504950818      1.55220598255581     -1.72232383014487
  H          -0.12088361599117      1.97707451227183     -1.03591303168105
  F           0.97455259683852     -1.26431268587921      2.35681545629228
  H          -0.98820209272043     -0.97417515625998      2.60554394881157
  H           0.10351761678514      0.27215042112990      3.27684761415466
  N           2.12234271098893     -1.31300497701743     -2.71031509657297
