21
Coordinates from ORCA-job NEB_reactant E -42.297715326050
  C           1.73452399060204     -0.25912160115260     -0.14868816784604
  C           1.33054840899871     -1.45854971327936      0.26947296129802
  C           1.43398478657705      0.47671446590027     -1.41650517540515
  H           2.36996490658282      0.30289613508883      0.51902358357707
  C           1.71973096111018     -1.95968591317430      1.64375517149506
  C           1.76405178329326     -3.59594532734093     -3.52914185559534
  C           1.70907514796529     -2.95164842812419     -2.36595256224204
  C           0.42966909057069     -2.52170148171437     -1.71693320353176
  O           0.54823211492439     -2.40377001213427     -0.30896267679459
  C           2.98410754823952     -3.97797331810076     -4.12045258131440
  H           0.87260865947039     -3.85958740229935     -4.08358376317703
  H           2.61826440236518     -2.69651575613344     -1.83911922274742
  H          -0.34620186148724     -3.28109112072538     -1.85548907983212
  H           0.07132714096723     -1.59196724492285     -2.17282411177730
  F           1.94631322164285      1.72521054655076     -1.34547686544528
  F           2.01387281908001     -0.09391781515878     -2.51588881830910
  H           0.35789971285297      0.58501415802621     -1.63688886375180
  F           2.23590916580563     -0.97238515369883      2.42880123570268
  H           2.48084941610452     -2.74491689404459      1.56277773938169
  H           0.83460139880866     -2.36136762852495      2.14822723586395
  N           3.96806718552585     -4.30539049503709     -4.60865097954909
