21
Coordinates from ORCA-job NEB_product E -42.303584125460
  C           2.35677575827996     -1.51822373652374     -0.86190704946541
  C           1.22550420586831     -1.58491483538479      0.16436309353926
  C           2.43739215063069     -0.08038897496467     -1.37855856526397
  H           3.31919662071455     -1.77262791546097     -0.40610180919946
  C           1.62032178984032     -2.29051010907175      1.44776697461440
  C           2.03430074054018     -2.53634735357852     -1.99317633921446
  C           0.91259959277794     -2.07537029710632     -2.88847075622027
  C          -0.30683132022665     -2.57414210693844     -2.83073979958185
  O           0.13803990246864     -1.13312270360398     -0.05044842059614
  C           3.22387329603533     -2.78487314918073     -2.78330534203522
  H           1.75395838633386     -3.48703510279360     -1.51988615638660
  H           1.17339357613518     -1.30464197987398     -3.59993949207306
  H          -0.57971577262239     -3.34733259180059     -2.13140519829648
  H          -1.08904394900888     -2.21973769764467     -3.47826595931645
  F           2.92089487649941      0.71089364570431     -0.38949865039966
  F           3.29690342806775      0.03757370886789     -2.41076268814700
  H           1.45926661172159      0.31810227478567     -1.68603828804274
  F           0.54206810236919     -2.51850228147650      2.24630630466679
  H           2.32048453426188     -1.65461163992682      2.00531100808419
  H           2.08864027896692     -3.25977291895706      1.23765070528480
  N           4.15257719034621     -3.01001423507074     -3.40739357195065
