16
Coordinates from ORCA-job R E -26.285126910690
  C          -1.24847215177947      0.00826697736378     -2.80250646973066
  C          -0.07915714918759     -2.55512471587670     -1.73754337628967
  C          -1.37010205407234     -2.28951555601194     -1.90621785721891
  C          -1.93685882220004     -1.02388713204044     -2.33100118467870
  C          -0.79761345768845      1.83359578899101      0.10378097745175
  C          -0.10175939164361      0.72369033096184      0.20727331092821
  H          -2.09981579818552     -3.06375974701944     -1.70665125736282
  H          -3.01198720462807     -0.92790396205627     -2.26448474779710
  F          -1.86690592759391      1.14587418960744     -3.16217826360611
  H           0.25261478667503     -3.52730632844172     -1.41514063002383
  H          -0.18174760373815      0.06775293645393     -2.95063670524072
  H           0.68943079837626     -1.82031724022423     -1.89996599851371
  H          -1.67531216798217      1.98398128418267      0.70255993631635
  H          -0.31132121321147     -0.11246478474186      0.85817597009305
  H          -0.51600931481649      2.61416049173879     -0.58033941205333
  F           0.99965667167597      0.50499746711314     -0.53200429227381
