16
Coordinates from ORCA-job TS E -26.271482116350
  C          -0.54896548474837      0.73820201206423     -1.29178007882600
  C           0.76519670743167     -1.44941543899942     -0.02562452625795
  C          -0.55545200807316     -1.47609989631433     -0.32948767545170
  C          -1.20822845285987     -0.40639066291017     -0.97775600396873
  C           0.04503540345466      1.37402902732322      0.78768151000355
  C           0.83101590246670      0.42143301620081      1.33756563028670
  H          -1.18213562697598     -2.25250304352576      0.08656087985816
  H          -2.28761001000444     -0.40103325790979     -1.01768946828365
  F          -1.24162117274125      1.79565584325455     -1.75215363960669
  H           1.20010669334046     -2.23285465808730      0.57347544352960
  H           0.49350391595301      0.80972246599439     -1.55946456926214
  H           1.46672167109924     -0.86276651601954     -0.58991172355776
  H          -0.98292585747103      1.44649719910196      1.08692919703792
  H           0.54017557182481     -0.26739188403154      2.11328389527568
  H           0.49014668767683      2.23673598674467      0.32508021808457
  F           2.17503605962672      0.52617980711403      1.23329091113844
