18
Coordinates from ORCA-job NEB_reactant E -42.807330602600
  C           1.52198374665586      0.09052390355923      0.04886203811611
  C           0.90661132860331     -0.99411521743061     -0.46469840983499
  C           2.01182804571169      1.19699002800544     -0.80599094979930
  H           1.67162643144732      0.17268050374778      1.11214512626795
  C           0.46973740214389     -2.00866049547175      0.43560280073057
  C           0.38749102463107     -3.08289831027022     -4.56351429324296
  C          -0.09462992999059     -2.18852449638860     -3.72222912248063
  C           0.04196726351831     -2.30744894364774     -2.24000931378600
  O           0.70376629392683     -1.13219587938703     -1.78314765673408
  F           0.23945241636733     -2.95569614990888     -5.88457746564687
  H           0.91131058641584     -3.99097362403660     -4.29884301069031
  H          -0.59460737588115     -1.30461340008219     -4.08774691292023
  H           0.61988041307723     -3.20007272311736     -1.96959572790237
  H          -0.95167222198711     -2.37696723337002     -1.77435790278417
  Cl          0.66602227758342      1.92854551710208     -1.73035690352400
  Cl          2.76699614301157      2.46269384364155      0.17636654451291
  Cl          3.21869600882614      0.60142872804804     -1.98716840819215
  N           0.11394014593907     -2.82899605099311      1.15125956791051
