22
Coordinates from ORCA-job NEB_reactant E -44.888909912920
  C           1.04622545619732      0.08468074859236      0.00426369462986
  C           1.47048103455988      0.11559586160912      1.27074632745640
  N           0.32385241260407     -0.95439285656783     -0.55460686958020
  H           1.32957791286003      0.87985436901354     -0.66725374202619
  C           2.29106119848579      1.23680557914288      1.85314648049505
  C           3.84569788152033     -2.18214758799342      3.61951837002897
  C           3.32407725105823     -1.87486261400069      2.44165206588001
  C           1.87789183049953     -2.08122687347155      2.10407574033628
  O           1.13116038697663     -0.87177240276157      2.19407877954931
  C           5.25457244481104     -1.95386289448081      4.03031679398408
  H           3.24517281370640     -2.64216240657794      4.39219725622727
  H           3.92529618138587     -1.41230783653612      1.67181828661313
  H           1.40243789810026     -2.75122758262566      2.82376125884146
  H           1.79839133110266     -2.50139142004700      1.09289520835829
  H          -0.18310762887132     -1.50653774726621      0.12345544192938
  H          -0.23723527794306     -0.69953691188151     -1.35208885471263
  F           2.48647873151768      2.24157665070320      0.94220567673994
  H           3.28435298814873      0.89197963229404      2.17003098029801
  H           1.77479164887168      1.67386057384802      2.71676166221871
  Cl          5.27884642358605     -0.93205579126732      5.50004087813210
  Cl          6.01635345351160     -3.52295427213109      4.43637195619959
  Cl          6.24322362731059     -1.16461421759441      2.79521260840113
