22
Coordinates from ORCA-job NEB_product E -44.889653895950
  C           2.88243425341093     -0.58278319032258      1.05783022266325
  C           1.57883569125598      0.21319609315927      1.23342803229388
  N           2.80872082693985     -1.51546583840527     -0.04199006076295
  H           3.71423097737193      0.10919724856659      0.89242792972797
  C           1.77362214185519      1.59863744269362      1.82684777554463
  C           3.12176048921990     -1.33356193923892      2.40385251927098
  C           2.28751297342818     -2.58212298281125      2.47355510890443
  C           1.19429059875350     -2.67948240657412      3.20478736953686
  O           0.51510085381131     -0.23083155405467      0.90387512589834
  C           4.60005093252925     -1.66368421995023      2.59967261400232
  H           2.84027996601647     -0.67120717470953      3.22952202656238
  H           2.63068094333003     -3.40110616712178      1.85993923275993
  H           0.83774439024151     -1.86678400832600      3.81611026031036
  H           0.60514123352088     -3.57929516997786      3.21773648428358
  H           1.90998040984890     -1.98913223015466     -0.02421669223750
  H           2.88998583175084     -1.03309850123542     -0.92897020121354
  F           0.59707876579069      2.13011777826008      2.26780390987170
  H           2.16378473697827      2.26681231167690      1.04818024138941
  H           2.46962611218750      1.57966194804386      2.67209067502501
  Cl          4.80178040133881     -2.55377809965732      4.13136109384060
  Cl          5.26026113927562     -2.63858904468419      1.28613413914886
  Cl          5.55569633114447     -0.16190029517653      2.72222219317950
