21
Coordinates from ORCA-job NEB E -52.322212304530
  C          -0.26739353881962      0.33019759684066      0.87391636666421
  C           2.41080008568023     -3.96363497136549      0.40213727025961
  C          -0.22546009018000      1.37095800407274      1.69869580797753
  H           0.21602988359249     -0.57676935596556      1.20681450160408
  C           3.29871938531564     -3.24958052646934      1.07808634571171
  C          -0.82540493744474      0.27914849330689     -0.52336954685619
  C          -1.91503866465584      1.28103282156945     -0.80424033901229
  C          -3.16589349487340      1.09302138128761     -0.43497319239266
  O           1.65231284708751     -4.62506765166998     -0.16819557460959
  C           0.29997392706903      0.39565896960461     -1.54831349671942
  H          -1.24839701955968     -0.72898003683095     -0.65378766502262
  H          -1.63017214476430      2.17268315897807     -1.34224047294910
  H          -3.47734516461559      0.21158480134395      0.09817973761656
  H          -3.92676204001763      1.82219029801990     -0.64772571372019
  Cl         -0.84949891825742      2.92804943424145      1.36861485835166
  Cl          0.46927890358384      1.21988779929553      3.26160373941867
  Cl          2.74410357937145      1.38595962728572      0.62456205207444
  N           4.08781207932857     -2.64897458940037      1.69862526991804
  Br         -0.44369952336889      0.14245128356716     -3.33513918798134
  Br          1.16578511704959      2.14928679766981     -1.55055701850565
  Br          1.63024972847868     -0.98910333538184     -1.30269374182743
