21
Coordinates from ORCA-job NEB_reactant E -52.450878987550
  C           2.10341783022006      0.11350709235516     -0.60587279986591
  C           1.65343700220740     -1.03847860129382     -1.14635670243864
  C           1.60620234000989      1.50986819453914     -0.66301301028108
  H           2.98891882728475      0.00477544449250      0.00535529129994
  C           2.43145559044394     -2.19134202527996     -0.78373257730029
  C          -0.07419972267891      0.75887595903030     -4.79248255106130
  C           0.50670442216998     -0.03709284256378     -3.90839051075075
  C          -0.17462520543915     -0.51068385851062     -2.66062589358289
  O           0.63407121310983     -1.41021670830452     -1.92887664409707
  C           0.55266675082589      1.29518958167958     -6.01691718400862
  H          -1.08743716317295      1.11037554992192     -4.63996794096558
  H           1.51678645368243     -0.39759877148073     -4.04992572677942
  H          -1.05862492386583     -1.10337202098712     -2.92081567507898
  H          -0.49800269486977      0.33553511749205     -2.04741453910300
  Cl          1.67589399489473      2.21100934987789     -2.31220944595582
  Cl         -0.08266621640595      1.65752068714893     -0.05747030774327
  Cl          2.61735416565431      2.54221250125269      0.38155058880155
  N           3.05767161304659     -3.10443565453891     -0.50000257693556
  Br         -0.55413978276958      0.84445441396143     -7.58391326752117
  Br          0.62727956320719      3.26758403117694     -5.87989160262333
  Br          2.35343594244515      0.66241256003094     -6.35782692400878
