21
Coordinates from ORCA-job NEB_product E -52.445130831860
  C           1.17381246296717      0.01329757623665     -1.95074927983828
  C           1.79554740842212     -1.39523181788859     -1.97049732623420
  C           2.05079597199691      1.06708602046629     -1.27870388420358
  H           0.30132049521171     -0.09410314471822     -1.28766119022094
  C           3.11962997055906     -1.58102813953685     -1.40757844737922
  C           0.52181614042724      0.27229857487831     -3.34270096421699
  C          -0.61521376753765      1.26068819366989     -3.27629435409281
  C          -1.85678007943873      0.89495742346331     -3.01860363652912
  O           1.17102841609460     -2.33644307939228     -2.38468899744634
  C           1.43745552958664      0.59665399536712     -4.51713545850563
  H           0.08170892716745     -0.71070362752420     -3.57976344986013
  H          -0.37400874198952      2.29706653001277     -3.45686184113119
  H          -2.12852634823033     -0.13315467850792     -2.84082368759749
  H          -2.65337289030023      1.61558039600804     -2.97552201043559
  Cl          1.25566257489437      2.65680234078227     -1.25995775229927
  Cl          2.25654360613916      0.55987396273788      0.44232702016896
  Cl          3.67270880939504      1.23256474937936     -1.97683199632094
  N           4.13681347381752     -1.87346521843370     -0.97289240578626
  Br          0.37031508488117      0.35692980376494     -6.14878047290744
  Br          2.11029131339518      2.41781613955109     -4.58489648891208
  Br          2.95385164254113     -0.64068600031617     -4.63878337625145
