24
Coordinates from ORCA-job NEB E -43.478308316990
  C           0.58358393031329     -0.26079005900312     -0.11122792901527
  C          -0.41502017165431     -0.00022138445255     -1.06309624835227
  C           0.31234483804383     -1.33492010432430      0.91902480618721
  H           1.60488355216604     -0.29098859194235     -0.48635678442473
  C          -0.08614641352434      0.43205541984299     -2.44657158533545
  C           0.48553674502091      1.36945592130489      0.90413671407738
  C          -0.86376781851390      1.43494416297502      1.26336941949286
  C          -1.83230274327834      1.49768925951050      0.20028965252827
  O          -1.65051318385221      0.21495077408356     -0.66324549169672
  C           1.45492702677479      1.22036884363128      1.93863945611935
  H           0.83813323835536      2.02834603423375      0.11306316660592
  H          -1.16968606774722      1.05904887035009      2.22839251371615
  H          -1.67962156730149      2.30694505764298     -0.51515709953490
  H          -2.86993754567852      1.43806631717692      0.51244930105542
  C           0.59284904257580     -2.70164937210410      0.29739930821397
  H          -0.73071095639164     -1.28379933668406      1.23578980702567
  H           0.95399557258299     -1.19603667076755      1.78999985004950
  H          -0.05997922204172     -2.87619087599021     -0.55500531301183
  H           0.41873006952136     -3.48255636819356      1.03245741120453
  H           1.62499341542094     -2.76882441662680     -0.03884181021935
  Br          1.25386280853845     -0.70392813320773     -3.26999201185725
  Br         -1.68116993308594      0.44927012089071     -3.53887669810462
  Br          0.67855193318997      2.34865308085471     -2.51182049105597
  N           2.23646345056590      1.10011145079893      2.76518005633214
