24
Coordinates from ORCA-job NEB_product E -43.510087099910
  C           2.13203477057918      1.10761878567066      0.70659895208418
  C           0.94828494462227      1.41371503706064     -0.16912569678371
  C           2.07170766381473     -0.39284268486607      1.04417776349467
  H           3.07466756736012      1.32269244213522      0.19176372939937
  C           1.26546003736069      2.00264660692672     -1.54450300976495
  C           2.02606155879726      2.05734184964812      1.93863414343474
  C           0.89279133085826      1.70533527111876      2.86354498159083
  C          -0.19410654209778      2.44321506137048      2.98270804865245
  O          -0.19404042051534      1.22275794170116      0.13356409175124
  C           3.27426742896452      2.07770196618508      2.67005155990781
  H           1.87585575239313      3.08027917582593      1.56476613554515
  H           1.01994938392686      0.80291413123562      3.44376610324613
  H          -0.33724686914842      3.35170250761373      2.42026198514924
  H          -0.99370527174028      2.16439269382100      3.64606250672813
  C           3.24014937387640     -0.86811595396180      1.89520901202865
  H           2.08055742378175     -0.94385089449824      0.09920453163116
  H           1.12310338549524     -0.60691870877496      1.53936484558580
  H           4.18780862987422     -0.60917527548811      1.42854683433544
  H           3.19420779927633     -1.94924538619196      1.99887158583355
  H           3.21882794289019     -0.42945580652755      2.88876011164161
  Br          2.34137850350196      0.71087915709357     -2.53467906283156
  Br         -0.37349447771624      2.35861755790542     -2.50760250694339
  Br          2.27629466439598      3.66005337899070     -1.33774074982693
  N           4.24948541944899      2.13444114600591      3.26219410411039
