21
Coordinates from ORCA-job NEB E -40.028815301480
  C           0.05140304242087     -0.46284615390891      1.00660334815003
  C          -1.32805432852438     -0.61464346659528      0.56350540334038
  N           0.36651035052312      0.55304221381412      1.90593202083153
  H           0.54011246350557     -1.40883626105572      1.23773578510502
  N          -1.65037584090601     -1.89719774805550     -0.03615211450316
  C           0.75576778551535     -0.00219419415341     -0.56175336283215
  C           0.02049421005489      1.15305378588647     -0.96890884610862
  C          -1.31626491488826      1.03010296945423     -1.34082624553687
  O          -1.98567618411367      0.38830108157191      0.17464763171551
  C           2.24423813294582      0.18765101822024     -0.32218775855490
  H           0.59789012680721     -0.89963252853885     -1.15873515727460
  H           0.38548784263354      2.10972546588359     -0.62311775989658
  H          -1.63400717245762      0.19381957401206     -1.95193101777787
  H          -1.89770541749593      1.92773726594466     -1.48773550135589
  H           0.79088097495466      0.28125541760725      2.77432200228082
  H          -0.32977146435860      1.27745495439102      1.98841636356494
  O          -0.94199024924066     -2.85077676637340      0.25264161758898
  O          -2.61432584909996     -1.94283139701792     -0.77312945237442
  F           2.51709208204835      1.37196237085638      0.30405342991670
  H           2.76820240908620      0.21402948570826     -1.28512270062565
  H           2.66009200058949     -0.60917708765121      0.30174231434680
