21
Coordinates from ORCA-job NEB_product E -40.048035174190
  C           3.01997007117441      0.16345800703613     -1.29553088572977
  C           1.50709802899750      0.16717251906486     -1.30867722170269
  N           3.57182853720319      0.86581078996913     -0.16890260086152
  H           3.33292812128907     -0.88875794434314     -1.22663965693584
  N           0.89624919833284     -0.74851611384974     -2.38871859054650
  C           3.51249115234544      0.73464194297895     -2.65833510739183
  C           2.56920704868378      1.81050756706109     -3.13048325348205
  C           1.84341886999518      1.71639822054729     -4.22890237803433
  O           0.75804801967381      0.73869963366638     -0.58905018868516
  C           4.94683259299749      1.26512901318563     -2.56247076072621
  H           3.51868349009078     -0.08451039917071     -3.38283238536666
  H           2.51756317028175      2.69218704920568     -2.50672988388766
  H           1.88906364571940      0.85075153329658     -4.87047077052058
  H           1.16971355144125      2.49871784163745     -4.53104556509927
  H           3.14511981892593      0.56323672369567      0.69857929255325
  H           3.45027492057833      1.86838069258419     -0.25271397964027
  O           1.61803015652502     -1.59443584223325     -2.86536382645937
  O          -0.24711717094719     -0.52413057940268     -2.67966230954371
  F           4.99153092492778      2.49808100190701     -1.96532769804287
  H           5.36359749139687      1.39444640247982     -3.56623316399578
  H           5.57546836036736      0.60103194068364     -1.96368906590117
