17
Coordinates from ORCA-job NEB E -38.641344865590
  C           1.11752862861599     -0.03899080837942     -0.39786715641210
  C           0.39361911058687      0.94478468575894     -1.06394944634418
  C           0.85818321690257     -1.46215145646361     -0.82981926932349
  H           2.15866139325813      0.16382618188826     -0.17349828449212
  F           0.93263037252796      2.20233591676528     -1.01470702492160
  C           0.15286557223135      0.14539478038415      1.38510743050841
  C          -1.17655539303739     -0.00359438959011      1.00238369783180
  C          -1.74955287311644      0.97006609640829      0.16120465813128
  O          -0.83559857194636      0.87661476719487     -1.30149674094384
  Cl          0.86912700324325     -1.02936673635188      2.43346201148265
  H           0.54455471446442      1.13852209673470      1.57518443858458
  H          -1.62393633846217     -0.98489530896803      1.05405869362863
  H          -1.54618798333654      2.01245046860704      0.37614654231723
  H          -2.74760142023610      0.78805213960037     -0.21113532796040
  F           1.34662817187570     -1.64247213192478     -2.08560523596391
  F           1.51417803855817     -2.35064789461633     -0.05870000031782
  H          -0.20854364212941     -1.72992840704774     -0.85076898580512
