17
Coordinates from ORCA-job NEB_reactant E -38.672352175790
  C           1.71284016344351     -0.00197260984520     -0.05249695440713
  C           1.04930267748828      0.69488774139774      0.87168463078221
  C           2.08484806855359     -1.43059168538554      0.16740152263090
  H           1.99365200702553      0.47114709793259     -0.97423867716691
  F           0.73452651406274      1.98011403271846      0.62292172365009
  C          -0.16535546298947      0.74277377603768      5.36044484196253
  C          -0.41675174119467      0.30964953783732      4.13654762380323
  C          -0.08078709071822      1.09530837818577      2.91001440410284
  O           0.65680317936745      0.23549254419027      2.04171798211000
  Cl         -0.57806414727462     -0.14985378447425      6.76189240883327
  H           0.29745189743785      1.69523465257785      5.57241366648650
  H          -0.86805548118664     -0.65461835667969      3.95991774703659
  H           0.51328525556511      1.98247917209280      3.15755707690091
  H          -1.00242583253464      1.41628985936293      2.40441062283157
  F           2.91156301143154     -1.58040575635533      1.23740927957718
  F           0.99760556057813     -2.20036798728897      0.44031391248140
  H           2.59156142094453     -1.87106661230441     -0.70411181161520
