22
Coordinates from ORCA-job NEB_product E -40.704613156960
  C           1.37285203950127     -1.00853692443649      1.82586205050604
  C           2.76233511426717     -1.09635973222381      2.49145681125647
  C           1.37653088754074     -1.33261290799878      0.33794609162002
  H           1.10752855842166      0.05477613710358      1.87885881473625
  N           3.52758554859003     -2.14728709588683      2.14886350327259
  C           0.34352347834909     -1.75215848869577      2.73065352602899
  C          -1.01880834311864     -1.82038600876658      2.10184392284637
  C          -2.01615093665300     -1.01668908693383      2.41828355968238
  O           3.09850373846735     -0.27344172044116      3.30856463347686
  C           0.77227785616928     -3.15093120127210      3.17740648607713
  H           0.27808124353007     -1.12788114099549      3.62854896770584
  H          -1.16022506786406     -2.61142007330850      1.37848494046521
  H          -1.90099798583895     -0.22857602117267      3.14447500750676
  H          -2.98679255833784     -1.10658910280749      1.96197644772961
  Cl          1.43154248307389     -3.06090140683353     -0.06872610518720
  Cl         -0.06174418055435     -0.64616964106386     -0.47026330850982
  Cl          2.80764884429847     -0.55905744384518     -0.42422035593902
  H           4.44435892926083     -2.21519150750656      2.55954816472911
  H           3.25174213297956     -2.82373901417746      1.45824174190121
  H           1.70268823607937     -3.11263083141108      3.73678959932480
  H           0.88821204723419     -3.82880262444813      2.33796868047075
  H           0.00150793460388     -3.55291416287828      3.83173682029963
