14
Coordinates from ORCA-job NEB_product E -23.040376243200
  C           0.94761156855720      0.15021398207392     -1.46380056159753
  C           1.65629120429816     -0.97607596598230     -0.79316386974470
  H           1.68217617301414      0.94726990366992     -1.61625149772437
  H           0.18974488205385      0.53689154545561     -0.77720494309165
  F           2.00783004273608     -0.61503194610357      0.48384418914150
  C           0.32467391790536     -0.28361029205051     -2.79364191969010
  C          -0.83622997365389     -1.20406560341915     -2.56959747369092
  C          -0.89585891797058     -2.44610880226556     -3.00778376387980
  O           1.95128477493221     -2.04697503683432     -1.18319488032373
  H          -0.01744538803698      0.60789323033196     -3.32542949760070
  H           1.08013337773879     -0.78305566764553     -3.40140463916750
  H          -1.65566579814705     -0.78207840671107     -2.00100775803983
  H          -0.08813610704537     -2.88645423964763     -3.56767394345172
  H          -1.74890975638193     -3.07571270087176     -2.82208944113896
