22
Coordinates from ORCA-job NEB_reactant E -46.286325142620
  C           2.48918686231811     -0.01988870553425     -1.00054126209646
  C           1.28531749389669     -0.20675139908190     -1.58783031763007
  N           3.33028829874472      1.10743559699741     -1.05350344262184
  H           2.91274078208836     -0.82568431513219     -0.42132460677447
  C           0.49686586515623     -1.44113127608308     -1.26249038025433
  C           3.69153899282215      1.73924331651368     -4.01138593909525
  C           2.59677313565364      1.00607284367012     -3.88143220939671
  C           1.32574745117608      1.51473891680941     -3.27442702251869
  O           0.66215597336559      0.51266286484364     -2.51917042991428
  C           4.96355090831299      1.29361285430263     -4.61832328117541
  H           3.70875094831394      2.76899661710531     -3.67396605887020
  H           2.56523757792509     -0.02679999914692     -4.20629683366385
  H           0.61095861593785      1.76538627637739     -4.06598189039135
  H           1.51674272364264      2.40566808125987     -2.66288272703831
  O           4.53053502825994      0.90955356374841     -1.00623115073884
  O           2.82533289734815      2.22046702641271     -1.10456023418051
  H           0.68874147265514     -2.20737002540352     -2.01257390069606
  H          -0.56284758977934     -1.20186127163296     -1.29700533517060
  H           0.75639964613510     -1.83150607278333     -0.28486740389456
  Br          6.48103340995879      1.82214161454764     -3.49596816947164
  Br          5.07678534473859     -0.61946567957832     -4.91720755185115
  Br          5.15946416132956      2.17987917178828     -6.38202985255540
