21
Coordinates from ORCA-job NEB E -43.962262818200
  C          -0.16993969331670     -0.38455278256863      0.40325080721778
  C          -1.06830292733163     -0.13594500045611      1.45892917853736
  C           2.58810698931918      0.28109025664836      0.03304846517721
  H           1.58001514117120     -0.03596073514465      0.33433721570838
  C          -0.80786607831654      0.44755412627398      2.81499699819243
  C          -0.49830794662841      0.28890890325787     -0.84990682570549
  C          -1.01570474315488     -0.91204900027683     -1.64880417349862
  C          -0.35726837304105     -1.35715711780462     -2.70477664159218
  O          -2.09164134582033     -0.77963375840334      1.21970381086374
  O          -1.43339528388809      1.32776110440737     -0.69739996985178
  H           0.38514084954069      0.66943436087401     -1.36011700203680
  H          -1.87271396376608     -1.42887840617815     -1.24849755450713
  H           0.64127533655070     -1.07871077045415     -2.97216490135830
  H          -0.69194668909829     -2.28590282983163     -3.15079044083997
  F           2.42100561204385      1.21160939441845     -0.95414256893536
  H           3.18485023997891     -0.56554016390332     -0.29997374429083
  H           3.07913626223688      0.78616267740252      0.86856661812827
  Br          0.73336379696076      1.55581717901957      2.86439175570803
  Br         -2.41200503544702      1.48584263982146      3.26313037631571
  Br         -0.90762432235120     -1.04465733794660      4.04370346632696
  H          -1.28617782564199      1.95480726084444     -1.41748486955947
