21
Coordinates from ORCA-job NEB_product E -44.110828831560
  C           1.93559381537433     -0.77410031338603     -1.29199945929853
  C           2.72913899467342     -1.77228794386832     -0.48768970765448
  C           2.77186930766151      0.49502749255824     -1.46831572012279
  H           0.99317905766245     -0.52277106244335     -0.79717792715725
  C           1.97014049645731     -2.45440284930331      0.65104862374962
  C           1.61663299074347     -1.39903953872605     -2.68126927259469
  C           0.52724493153322     -0.60343361409644     -3.35469852889630
  C          -0.75524262245346     -0.89555182110197     -3.25277856605958
  O           3.87740303396715     -2.04734965089779     -0.66719821101733
  O           2.81121653554137     -1.41068573726686     -3.42058094489679
  H           1.25484250240375     -2.42798058524163     -2.52061808501047
  H           0.87429333995968      0.23466026697140     -3.94220096924486
  H          -1.10271274991968     -1.73413480801596     -2.67117307909602
  H          -1.50921149909930     -0.30454136452391     -3.74219159160347
  F           2.89851483768788      1.12642460274997     -0.25950748299519
  H           2.27882097324610      1.19574739532147     -2.14591314209244
  H           3.77430969529081      0.24595361082385     -1.82531804886764
  Br          1.64929209709366     -1.09218353465426      2.01511031043043
  Br          0.26596283320666     -3.17305038418108      0.07105094745925
  Br          3.04030578182354     -3.88200546432478      1.38856887218348
  H           2.66100564714614     -1.85699469639318     -4.26074801721496
