21
Coordinates from ORCA-job NEB_reactant E -44.113075227700
  C           2.02690482432540      0.06053234951268     -0.08411615374974
  C           1.43917568360210     -1.09625609101267     -0.38152269577068
  C           1.55196978397801      1.39279076133288     -0.56090224903619
  H           2.89686061832775      0.08677443537808      0.55591975103706
  C           1.97363183791780     -2.39690956831466      0.16575010140430
  C           1.44249022538465     -2.96160539611277     -3.67354636550194
  C           1.57267593506248     -1.72989208858507     -3.18833696387868
  C           0.43694259177306     -0.98941057104140     -2.56060936326412
  O           0.32807744939501     -1.25193671845823     -1.14705225918700
  O           2.41508832612752     -3.71394483539104     -4.20265940908717
  H           0.48952612209153     -3.47322504159729     -3.68865005012167
  H           2.54138301715977     -1.24609717440772     -3.17540363972225
  H          -0.52293500928227     -1.33408573023114     -2.94784087465061
  H           0.53552963298116      0.08833701936006     -2.72563159506702
  F           1.96117067369239      2.37025692202595      0.30411408787624
  H           0.45807265333133      1.43825614928380     -0.61022569961333
  H           1.98496755931457      1.64693085018142     -1.53896540149086
  Br          2.30465840791483     -2.31248435218332      2.08549304906954
  Br          0.74719232029374     -3.84336101954476     -0.18585033472263
  Br          3.68832770143406     -2.83386188696138     -0.69966499665192
  H           3.27148964517511     -3.26940801323341     -4.13709893787132
