19
Coordinates from ORCA-job NEB_reactant E -35.705529916150
  C           1.26630866867589     -0.10493669832316      0.03134969467948
  C           1.61842606990547     -0.03215414390592     -1.25608547807237
  I           0.16643409510835      1.42212204250891      0.90558915009541
  H           1.49682525621575     -0.95603260110558      0.64566998019436
  N           2.35631119008212     -1.16079630936202     -1.80936815145859
  C           4.54787329278921      0.85369016982962     -3.03864766826341
  C           3.51935848057553      1.55784366924187     -2.59185718772394
  C           2.12024553199153      1.40216677068033     -3.10075026907038
  O           1.23107188140602      0.95796269578116     -2.05709103286145
  C           5.93784468940745      0.96363939819828     -2.52018709715419
  H           4.40112085773750      0.13954030433589     -3.83982298270872
  H           3.64152597256365      2.26681378341153     -1.78298766843108
  H           2.08123499103264      0.70807584662853     -3.94557149487583
  H           1.69314180560607      2.36352525684837     -3.39688648783141
  O           2.22758143402091     -1.38322503439108     -2.99266321673566
  O           3.02947391063066     -1.81123097520010     -1.03864863982624
  H           6.00871926109885      1.71048910787786     -1.73360218832734
  H           6.61757352903822      1.23096232422583     -3.32811171872481
  H           6.26012908211415      0.00024439271966     -2.12592754290384
