31
Coordinates from ORCA-job TS E -37.867711065510
  C          -1.57748154224495      0.26929030260025     -1.62129310267481
  C          -0.52384976070454     -2.05017061702611     -0.31383932695060
  C          -1.84321471008220     -1.90431685417581     -0.58064865668713
  C          -2.36516980752281     -0.78447498620715     -1.26143757848775
  C          -0.93383419195504      0.86592480778302      0.41553683727034
  C          -0.11168950965877     -0.07135196824009      0.95736353396662
  H          -2.55472598289600     -2.57148853825382     -0.11279728065036
  H          -3.44058014712371     -0.66573587585581     -1.28685950013492
  C          -2.16897565628821      1.50068936241067     -2.23549902238373
  H          -0.18853057120384     -2.86031656156061      0.31164626222641
  H          -0.53482871583072      0.12668765618301     -1.85063264461868
  H           0.22541482447899     -1.58058244902966     -0.91895715184605
  H          -1.95817343920036      0.92889550909713      0.74107040521825
  H          -0.50476237589329     -0.73231446229651      1.71512555628106
  H          -0.53380575832362      1.75084265982237     -0.04637981886465
  C           1.39950267264335      0.07315363081336      0.96773885442931
  F          -1.24245428151657      2.51735350457622     -2.28630755857774
  H          -3.02422489042483      1.88051970235582     -1.66629835536622
  H          -2.47462059576013      1.31740705735285     -3.27480334104335
  C           1.70830009009343      1.15655115906819      2.01903608709947
  C           2.08581628979531     -1.22188669139237      1.41187624915554
  C           1.98489645771551      0.51944985027173     -0.37459328773450
  H           1.29970618600130      0.87416676998426      2.98688430776592
  H           1.27021735033130      2.10773122472831      1.72805145217209
  H           2.78336729344004      1.28739608943232      2.12402545704288
  H           1.64808287852681     -1.59040271318166      2.33708056797924
  H           3.14468846736008     -1.04069920290323      1.58606426614020
  H           1.99874119855403     -1.99632146923258      0.65565209364718
  H           1.51575288839286      1.43294446539962     -0.72883783100789
  H           1.86606665297441     -0.24947953539119     -1.13484185703259
  H           3.05036868632220      0.71053817286746     -0.26312561633356
