18
Coordinates from ORCA-job NEB_reactant E -37.825145664810
  C           2.05499776990760     -0.02151238561872     -0.40124204227152
  C           1.53271719180241     -0.56769133459615     -1.51426954649809
  C           2.22096011249283      1.34109420733422     -0.12865413243242
  H           2.38900205778332     -0.69879772628703      0.37559393538231
  N           1.47263062598702     -2.04252492627462     -1.58328468325496
  C           3.46311685309709      1.22690400556860     -3.41811923977264
  C           2.42950870697754      1.92322272446746     -2.96139433993244
  C           1.04704746212563      1.35708735678244     -2.81797285415522
  O           1.03068059126716     -0.05144446618343     -2.62294755798860
  O           4.72234872534603      1.67859962217647     -3.54953044100545
  H           3.38050267164082      0.19513417671325     -3.73200720540527
  H           2.54225382145213      2.95337293884388     -2.65738676012125
  H           0.46341686406972      1.50007311699465     -3.73376910150542
  H           0.52553836512580      1.85210596066716     -1.99033315010315
  N           2.38010567415738      2.44291558834955      0.15317608727770
  O           1.08067745921202     -2.51947535512591     -2.61540563811076
  O           1.82428275737603     -2.65451030946469     -0.60194649233857
  H           4.78091229017949      2.60054680565287     -3.26520683776425
