18
Coordinates from ORCA-job NEB_product E -37.806316723230
  C           2.75978842349069      0.08091542411394     -1.56578914188705
  C           1.65235616756671     -0.84359787309964     -1.95486461620859
  C           2.44730434571698      0.66920670490690     -0.27616276983833
  H           3.68989544994638     -0.49008505495694     -1.43310637000073
  N           1.56189155912867     -2.07744292622857     -1.01613611018518
  C           3.00553721760168      1.17843859928343     -2.63816985455518
  C           1.96438341139565      2.26130283516430     -2.56032738309318
  C           1.00356337519172      2.41611072386468     -3.45045901968390
  O           0.86791059428580     -0.76599865975815     -2.83560744418431
  O           4.30832700500612      1.65691834540188     -2.39368429336782
  H           2.95765969028881      0.68908336470045     -3.62587293335186
  H           2.06276092769567      2.92024798884154     -1.70807225442999
  H           0.89971308753550      1.75620377154994     -4.29580226166683
  H           0.27251391403671      3.20007091974026     -3.35974940116625
  N           2.19329710157029      1.15884317957321      0.72168600183989
  O           0.56644748681890     -2.73517868329890     -1.12882580497117
  O           2.49429801417175     -2.26394416660402     -0.27410246271957
  H           4.44225222855195      2.48130550680569     -2.87275388052995
