22
Coordinates from ORCA-job P E -49.634180369150
  C          -1.16221464793738      0.67534993730828     -2.18873324213326
  C          -0.48566075459083     -1.76184483700272     -0.59527446329782
  C          -0.98284930336269     -1.79716289378035     -2.00679387451990
  C          -1.28768055164717     -0.72670751576154     -2.71849790965691
  C          -1.03702774545884      0.69904417283189     -0.66183388490670
  C          -0.04976169084738     -0.35783295037229     -0.16279468262598
  H          -1.09421684094157     -2.78120688643113     -2.43589061922341
  H          -1.63327833480346     -0.81388881280354     -3.73720283363518
  C          -2.38559045768280      1.48499803653250     -2.60401818944477
  H          -1.28575693108907     -2.10575716090977      0.06633039345554
  H          -0.30301286740417      1.16979639913904     -2.65988436279883
  H           0.34615779869863     -2.46166635016150     -0.48333591585965
  H          -2.01185793002962      0.47424364473371     -0.22377008028716
  H           0.00309488873436     -0.30509487866388      0.93022746404351
  H          -0.73141657603405      1.69204495103112     -0.32694811768417
  C           1.37340474325072     -0.07561863108656     -0.63379149018438
  F          -2.52279036043168      1.55761985893542     -3.93414009939685
  F          -3.52917237216292      0.96755653632805     -2.12884249143029
  F          -2.32993513950992      2.74967517235133     -2.15681884100803
  F           2.25693858652699     -0.85281562709773      0.01535546952429
  F           1.58305700794521     -0.28810542242515     -1.93924974376442
  F           1.74035947877767      1.19373325730481     -0.39479248516560
