22
Coordinates from ORCA-job R E -49.530934167560
  C          -1.25890330272656     -0.03138774698665     -2.95184587991982
  C           0.32435470794081     -2.59113765653588     -2.72041658924369
  C          -0.81991132667712     -2.32173495622759     -2.09833700096523
  C          -1.56558770244177     -1.08277377717665     -2.19132180400076
  C          -0.71035218604409      2.06790836133001      0.12018991404977
  C          -0.49670306557416      0.94709511417274      0.78354024710522
  H          -1.25570680540472     -3.06004631740239     -1.44011521925894
  H          -2.45356465411005     -1.02738861164248     -1.57363219072196
  C          -2.10781624677288      1.19359422253412     -2.98966499948673
  H           0.81494042381098     -3.53924713462450     -2.58818684144710
  H          -0.39867198866361      0.01341282995055     -3.59976534594922
  H           0.80729197025174     -1.88514170925217     -3.37126742272939
  H          -1.52640662636456      2.71858919658895      0.38076925777361
  H          -1.10378798862281      0.62363702275157      1.61606070244901
  H          -0.09156346129808      2.36783844059207     -0.70965444509139
  C           0.62120216782526      0.00927344788615      0.45466193684864
  F          -2.88558956805069      1.24747127583025     -4.09001664169481
  F          -2.94214903876730      1.30953479888133     -1.94117572777020
  F          -1.37284464532300      2.32160490340810     -3.00389491154243
  F           0.21980308489698     -1.27718218822606      0.50777811723804
  F           1.13888710939258      0.19446260245659     -0.76844609542175
  F           1.64920914272304      0.10765788169197      1.31683093977912
