15
Coordinates from ORCA-job NEB_reactant E -30.927342881080
  C           1.78272914202127     -0.18617477888445      0.01705662585764
  C           1.75936645341367     -1.14387731128424      0.95878771050018
  C           1.38684851283245     -0.31326423508700     -1.32049528463672
  H           2.14042789882913      0.79558065522202      0.28928509115053
  Cl          2.29815833955300     -0.76394106431338      2.55393558872395
  C           2.47638960630844     -4.67828306437268     -1.31950918852131
  C           2.11594937079822     -3.41927342406710     -1.14248539553239
  C           0.94513301878628     -3.03310887815702     -0.28898002546942
  O           1.36132151654731     -2.41439793120816      0.92810459085873
  Br          3.94773633309217     -5.17521619741319     -2.38300024945574
  H           1.95802918630116     -5.52032107494176     -0.88755576122250
  H           2.67008131967545     -2.61228689544717     -1.59939594002394
  H           0.39705755142407     -3.92002254067056      0.03789384135028
  H           0.27336373289310     -2.36838663049295     -0.84169789950965
  N           1.08490801752427     -0.36082662888237     -2.42804370406964
