18
Coordinates from ORCA-job NEB_product E -40.742894961760
  C           1.91079190004465     -1.36968763399181     -0.74125500937142
  C           2.69451851459015     -2.07311579226997      0.35219161641419
  C           2.64136559664052     -0.16021396316586     -1.07273391366446
  H           0.91434331566569     -1.07832919846857     -0.38226271103504
  C           2.18238377558048     -1.81956146636339      1.76734758242037
  C           1.72922314085522     -2.26644404524955     -1.98061498830916
  C           0.79713209294022     -1.63576774062576     -2.95884835886008
  C          -0.29743053309929     -2.22868539622206     -3.39784504127152
  O           3.61489136134232     -2.80822880200510      0.17425491559907
  Br          3.47051822276846     -2.58713065757560     -2.87200880105691
  H           1.37358050899609     -3.25194957352683     -1.66897623499849
  H           1.08891774556011     -0.65336973114140     -3.30532647899951
  H          -0.58652503306084     -3.21221149943107     -3.06476608540479
  H          -0.94653983201666     -1.75192316096462     -4.11044640232669
  N           3.21676331364335      0.78697568676737     -1.34094981491375
  Br          1.83361789390702      0.06049397530578      2.12268933093641
  Br          0.49609626784130     -2.82972488323677      1.85530337838193
  Br          3.42665174780122     -2.52822611783483      3.06084701645984
