18
Coordinates from ORCA-job NEB_reactant E -40.750319163030
  C           1.90000229769318     -0.37433142562183     -0.20328321684868
  C           1.39148404039241     -1.57967515513536      0.09610602055646
  C           1.79867191954400      0.29373764471498     -1.43400724032378
  H           2.45129182071398      0.18031516983590      0.54289687232479
  C           1.55345766262360     -2.22877721240011      1.44061041353234
  C           2.68746767588846     -2.77050866020921     -2.65705871617343
  C           1.55681005395068     -2.14442714857686     -2.93361679757510
  C           0.37336922524437     -2.10884980116335     -2.01156574742503
  O           0.67785700464623     -2.42656737291549     -0.66543591940245
  Br          4.14912984067400     -2.79121515539023     -3.84489191671905
  H           2.87620622298630     -3.31961466293031     -1.74748468604470
  H           1.42203446626685     -1.61594849397022     -3.86517331747720
  H          -0.35116519876218     -2.87632130150764     -2.30715667661829
  H          -0.11692420726562     -1.13041850715363     -2.06859166996024
  N           1.74971460240372      0.89873666748904     -2.40763032501564
  Br          2.48289045118341     -1.18188411028117      2.76744372905167
  Br         -0.22854184500586     -2.66728699108055      2.13663337817224
  Br          2.53704396682247     -3.91036348370395      1.18560581594611
