18
Coordinates from ORCA-job NEB E -42.342271591050
  C           1.07463682914184     -0.03991408830249      0.34626916086944
  C           0.41919684944520     -1.23370103095036      0.00325763024436
  C           0.92138545803450      0.54275287305060      1.71650420083268
  H           2.10412603297390      0.02164194794715      0.00483496616309
  O           1.06218475041222     -2.01726677026377     -0.89751006546101
  C           0.05265958125145      1.12363710648690     -0.99334564149470
  C          -1.27001241732472      0.89565277856970     -0.65333582508418
  C          -1.77296758721469     -0.41730038914028     -0.79014968145160
  O          -0.82693679672688     -1.42532087738392      0.20039151659175
  F           0.55491221721907      2.35374839728210     -0.83372128203274
  H           0.51358359810059      0.64323207591157     -1.85274365407582
  H          -1.74197798781526      1.58065063974241      0.03237985703050
  H          -1.58113558661435     -0.92451910654882     -1.73027818190601
  H          -2.75929995668746     -0.60904734925097     -0.39183122746315
  Cl          1.59977242148206      2.17988413129582      1.82600634156880
  Cl         -0.72418334075100      0.56054843412478      2.34577430977217
  Cl          1.89397918375193     -0.49463471739767      2.84091354045478
  H           0.48007675132159     -2.74004405517275     -1.17341596455835
