18
Coordinates from ORCA-job NEB_reactant E -42.375823546380
  C           1.73887550665327     -0.05795421492412      0.00718132729922
  C           1.09507262452313      0.13712107339443     -1.15908826528608
  C           2.02744000171053      1.05080003298050      0.93520872523730
  H           2.06517112626216     -1.04130574715689      0.29589693995843
  O           0.81671796562759     -0.85699375882802     -2.02704886299753
  C          -0.03841406232816      3.65818222217880     -3.95313817380324
  C          -0.36993285428257      2.92436889270224     -2.90867563607991
  C           0.00836699310957      1.48762911629317     -2.76750695167162
  O           0.69064426703968      1.34970141617040     -1.52226018914551
  F          -0.40889758192996      4.93864246857192     -4.06109666175911
  H           0.52208938581802      3.32553285168744     -4.81568520722340
  H          -0.92256318431544      3.35607089322033     -2.08829299163999
  H           0.65733855750841      1.16359037365694     -3.58832566906826
  H          -0.88991668745137      0.85628403968773     -2.75841654460974
  Cl          0.52697824318310      1.86737947258903      1.48123378818607
  Cl          2.87617756737846      0.45471949531071      2.36724447289372
  Cl          3.04821329963546      2.31188322865569      0.16916841744125
  H           1.14083883185813     -1.70085185619031     -1.69119851773160
