20
Coordinates from ORCA-job NEB_product E -54.136639614700
  C           2.12785521559410      2.30839594554466     -0.66739805839914
  C           0.84258612851539      2.40518576201918     -1.50726133481228
  F           1.96783207496440      1.21838681114690      0.15494795956198
  H           3.01636455744209      2.11581274997382     -1.27894132016325
  C           0.97203135577499      1.90162351885594     -2.94805412976790
  C           2.29668705226030      3.55890340265970      0.21406295761093
  C           3.39884715718185      3.35709003067713      1.22077389596164
  C           3.20296661571255      3.38996220019477      2.52380634900714
  O          -0.19308260623924      2.77916500941929     -1.05272451426113
  C           2.62944627882324      4.76241761524826     -0.66248685109245
  H           1.34549336851927      3.76330264004898      0.71817441242077
  H           4.37736540380958      3.17704531274790      0.79833220996980
  H           2.22982373047812      3.56477923490742      2.95082755809890
  H           4.01254098244089      3.23886815648836      3.21526483864259
  Cl          2.28622148042283      2.76014464405383     -3.78077885787132
  Cl          1.36525498147647      0.16667140332491     -2.83190319635927
  Cl         -0.53862796157287      2.12371989158652     -3.82543738248932
  F           3.77510679495661      4.59429717295478     -1.33866038076846
  F           1.68337450598869      5.01046717352268     -1.58249789197459
  F           2.76401288345073      5.87706132462499      0.05935373668536
