24
Coordinates from ORCA-job NEB E -51.426843415750
  C          -0.89760507834842     -1.03905579221171     -1.40466552965855
  C          -1.15874031043477      0.26185559524517     -1.20037442231243
  O           0.32963627943302     -1.57053576360336     -1.47055012451652
  H          -1.73183171491423     -1.73496782930495     -1.32500517277319
  C          -2.61443929119767      0.68998331980494     -1.12961252810269
  C           1.72126448055123      1.42339141203185      1.69718330454536
  C           0.88479498244453      0.88272433329026      0.73473117468417
  C           0.43212898268633      1.83580261925140     -0.31633926282416
  O          -0.26718041061645      1.28865122719371     -1.40384046513822
  C           2.19198137247086      0.99109609432326      2.91009859695057
  H           2.09444967376367      2.41978546284305      1.47014944527121
  H           0.77268684695349     -0.17665135061331      0.60516112400702
  H           1.34152651580070      2.27072718490573     -0.75414739038696
  H          -0.14879412120368      2.66779603985673      0.12861131176217
  C           0.37806728217784     -2.94517037654418     -1.14406172549517
  H           1.33322691499066     -3.32475314371484     -1.49551095085997
  H          -0.42921437103030     -3.51184882589888     -1.61700682651012
  H           0.30103354077250     -3.05718650006526     -0.05320284362047
  F          -2.70800375604830      2.02657486025155     -0.97401318929341
  F          -3.28263323468627      0.38979614346879     -2.27797923393704
  H          -3.17066668952197      0.22187698905310     -0.30202145575975
  Br         -0.65815786665619     -1.49636792849671      1.69575855822057
  Br          1.66433077648652     -0.45907300524355      3.92888581435766
  Br          3.62213919612689      1.94554923417726      3.69775179138992
