24
Coordinates from ORCA-job NEB_reactant E -51.494130603460
  C           1.55394234659602      0.33351724042723      0.21011461356996
  C           1.22104300604202      1.61768864871185      0.04882558393359
  O           1.88006606500739     -0.25412998124636      1.39670720011283
  H           1.56079394589934     -0.31431144442415     -0.65772284326920
  C           0.83335549133236      2.11800908261890     -1.32057331289055
  C           3.49167962866639      1.45399085844850      3.49585174520307
  C           2.97510558704132      2.03177097814047      2.42263723881492
  C           1.52664379988254      2.38501263480920      2.29236302695884
  O           1.14116337880228      2.63066066827554      0.96242601485307
  C           4.90330664384268      1.06402504316853      3.67583852208173
  H           2.86864740134056      1.21966208199928      4.35043644737588
  H           3.58243045607419      2.28183826838690      1.56248114179982
  H           1.32965185006139      3.33320508259870      2.80607417120583
  H           0.90232232037430      1.60384152345228      2.74222689620305
  C           2.54127547373436     -1.49721762573042      1.28542922526694
  H           3.53813288275897     -1.37668246472689      0.84986854581662
  H           1.96467364606501     -2.19849424720170      0.67543289188617
  H           2.63272206065166     -1.88704727042948      2.29728798221769
  F          -0.44530078300982      2.56505028255674     -1.33729450842388
  F           1.60371977771029      3.16820685831962     -1.68956879512601
  H           0.92699644433526      1.34268827800032     -2.09579736410149
  Br          5.72703149969462      2.15403970631501      5.11000397620696
  Br          4.99112780143792     -0.82038730205399      4.24597707226223
  Br          6.00296927565892      1.23606309958391      2.08867452804192
