24
Coordinates from ORCA-job NEB_product E -51.495350807110
  C           2.79500431928953      0.57635573431487      0.84529379085401
  C           1.42735670922582      0.93493476731756      0.27250518103642
  O           2.86921837786575     -0.75572663232356      1.25376478820769
  H           3.54412547843734      0.78762628025933      0.05864204328464
  C           1.32105642170953      2.35809152569139     -0.33227194986796
  C           3.05793546674471      1.48498497162213      2.07022017978224
  C           1.93472635640064      1.34537621762086      3.06295951043624
  C           1.36146368001855      2.37285113811722      3.65955982552426
  O           0.47952672731271      0.20612341271311      0.26356292790141
  C           4.38313877506865      1.15190483055171      2.74912932193033
  H           3.13136766116739      2.52390057739371      1.72508323020652
  H           1.63279360592861      0.32705618623770      3.26288820989935
  H           1.65223786380032      3.39116422411412      3.45930363519555
  H           0.56789166755443      2.23217555210828      4.37165889085353
  C           2.95708472527675     -1.70289094975792      0.21163850226012
  H           3.80586892299008     -1.48154709425937     -0.44583430520916
  H           2.03728827586801     -1.73913891647788     -0.37711707009426
  H           3.11431955062626     -2.66055550598640      0.70229957658773
  F           0.94628340805269      3.23333692648796      0.62856501811287
  F           2.51515645295409      2.78970804702212     -0.79802015445771
  H           0.58319711876347      2.39864626123658     -1.14684087332956
  Br          4.77392326032497      2.54611534234444      4.06094139122543
  Br          4.38772826001610     -0.53437554984920      3.69207362248066
  Br          5.86480691460358      1.13688265350124      1.47579470717964
