23
Coordinates from ORCA-job NEB E -45.258794156450
  C           0.40617018267240      0.58013445177519     -0.67716133977679
  C           0.41562674416808      1.50504078104565      0.38596804907878
  O           1.60040361019032      0.00668464844794     -1.04603389672621
  H          -0.27404156662808      0.78611435030407     -1.50177086127156
  N          -0.66689202573401      2.33937966209221      0.51921975909372
  C          -0.46049928530462     -0.94126446389156      0.38182410389031
  C          -0.42261235721946     -0.61556430166184      1.73830493309087
  C           0.83490136202957     -0.15939604293673      2.21222613213975
  O           1.10818355410421      1.29493276322985      1.45393148363424
  C          -1.79850995121939     -1.14589323728040     -0.25577783770054
  H           0.29205425071626     -1.62755760343521      0.01175838862369
  H          -1.31575463049025     -0.20126191976324      2.18682363046907
  H           1.70147009549994     -0.71380200381735      1.86697983489319
  H           0.90381459870195      0.13952451516787      3.24991636532243
  C           1.58309506952762     -0.65395587104412     -2.29043758302202
  H           2.58984278391588     -1.03759261979153     -2.44262948672792
  H           1.33015810082302      0.03840286855825     -3.10074463654865
  H           0.86961291229627     -1.48426559635820     -2.30404827512520
  H          -0.71367487139568      2.90067714027995      1.35158700961441
  H          -1.19113447765590      2.63704300253972     -0.28257996780693
  F          -2.59275188804180     -0.06318674638196     -0.16279770056550
  F          -1.70386242874632     -1.41879772545455     -1.57306855927151
  F          -2.49559978221002     -2.16539605162402      0.27851045469236
