23
Coordinates from ORCA-job NEB_reactant E -45.287445586840
  C           1.13421797499728     -0.05086763526328      0.33891048883161
  C           1.41739027769014      0.29511732341075      1.59901092017019
  O           0.65227370911783     -1.29324470781004     -0.03151444891151
  H           1.32077400783024      0.65011245751517     -0.46524719755104
  N           1.96055956848305      1.53859097652972      1.92638721830191
  C          -0.56918706762644     -3.51335363217660      1.77350279288983
  C           0.38339784941344     -2.65362229372197      2.10160735778278
  C           0.12021240320769     -1.33688832569274      2.76539992330355
  O           1.21673685063318     -0.45289637033339      2.73195077523354
  C          -0.28547216534993     -4.82590151419871      1.12572841471883
  H          -1.62098338748008     -3.31599879249274      1.91276750632287
  H           1.42449948477654     -2.89206296348564      1.93811319380650
  H          -0.05598776237250     -1.51164519746476      3.83414491157029
  H          -0.77353282177412     -0.86298429526759      2.34070963937384
  C          -0.35372217426656     -1.25438823323004     -1.01554742741382
  H          -0.57609206584440     -2.28931985288895     -1.26905027596968
  H          -0.00801587190796     -0.72391158866161     -1.90965190260928
  H          -1.26109303556630     -0.76459862387458     -0.64283289417268
  H           2.38897606956268      1.52500125235403      2.84133324161288
  H           2.56691658395921      1.92957361497424      1.22171292214386
  F           1.01300872506967     -5.14540704040254      1.09009826586013
  F          -0.91162134944732     -5.84417160653537      1.74871221836015
  F          -0.72095580310535     -4.86253295128333     -0.15194564365476
