23
Coordinates from ORCA-job NEB_product E -45.318450411860
  C           0.55973377804435     -1.55930007689947      0.52355282816659
  C           1.28955746711015     -0.35937702423622      1.16727004241304
  O           1.43564299314735     -2.37938803267749     -0.20128689779432
  H          -0.25029882601804     -1.18836605084669     -0.13000886416192
  N           0.59562127649652      0.80010274542724      1.11596219891527
  C          -0.02483040012153     -2.41894852650663      1.66447435069379
  C          -0.67015886512926     -1.57739166761894      2.73015936026985
  C          -0.19278130106852     -1.45788644929366      3.95336514714706
  O           2.38392936099651     -0.44744254374479      1.66441983073400
  C          -1.06087384162450     -3.38855966549161      1.10702783914814
  H           0.79840028015068     -3.00911182346480      2.07697384115075
  H          -1.57598488988199     -1.06729730456325      2.42910095799256
  H           0.70648284430747     -1.96306890834697      4.26160920936576
  H          -0.67841262549448     -0.84294301385008      4.69067154438999
  C           1.98648854717045     -1.76609749531233     -1.34263640526723
  H           2.59276102369308     -2.52832070214293     -1.82574588867840
  H           2.61684920595079     -0.91221282147383     -1.07468013404509
  H           1.19850411062889     -1.43359877718546     -2.02999749222331
  H           0.98587651834265      1.61071765422602      1.56907226910351
  H          -0.33830296935278      0.86023226273027      0.75231913059020
  F          -2.08056074289595     -2.73945447006365      0.51000649331488
  F          -0.57988436187293     -4.24314290633240      0.20441154129617
  F          -1.61355858257890     -4.13194440233232      2.07915909747871
