30
Coordinates from ORCA-job R E -38.159079945940
  C          -1.88672791082972     -0.97511462178631     -3.50854078287143
  C          -0.40346760438578     -2.77717220691369     -1.60367672217837
  C          -1.27056361840761     -1.82413827194321     -1.28193120016808
  C          -1.83125964050792     -0.84161333593278     -2.19006322494619
  C          -1.15104490734246      1.90151365908852     -0.09571934510958
  C          -0.32951992831831      1.03188943658660      0.49025751628840
  H          -1.59240051661995     -1.72075133359106     -0.25451027818347
  H          -2.23660467808912      0.05414891491940     -1.73900117549292
  F          -2.41597960217999     -0.01727701715899     -4.28764025849004
  H          -0.03336595117238     -3.47172594496646     -0.86913858125970
  H          -1.54947978704242     -1.82119958494478     -4.08830094244653
  H          -0.02565942510706     -2.89541151827813     -2.60482221985396
  H          -2.15336491308367      2.02051652458110      0.27400556668040
  H          -0.71135128158834      0.43451620172049      1.30986480648203
  H          -0.87416375607218      2.53302011733808     -0.91977660902197
  N           1.00221957756316      0.80329092305255      0.25032299833095
  C           1.66876718920559      1.50307947267879     -0.83266514461444
  C           3.16056874334121      1.68443648324809     -0.54863011476494
  C           1.45677335145776      0.82632088524493     -2.19169712307783
  C           1.55775888734397     -0.45714337065252      0.67800209042582
  H           1.21729626543222      2.49982917895936     -0.86417227747234
  H           3.70481445146385      0.75140118076205     -0.67163668851608
  H           3.31110713577413      2.05544395605939      0.46227683533909
  H           3.57358042686559      2.40901483061727     -1.24580394770325
  H           1.92385808294686     -0.15578232808195     -2.20940613383517
  H           1.89619578233918      1.43053715622434     -2.98099650745060
  H           0.39500966662890      0.70786682721690     -2.39108095595579
  H           0.99238057466439     -0.82943868303327      1.53058583801948
  H           2.59324758624623     -0.32587368554072      0.99170369637223
  H           1.52148579947387     -1.21752384547399     -0.11213911452570
