20
Coordinates from ORCA-job NEB E -39.057055323400
  C           0.52852297197094      0.66230969264143     -0.39598465340746
  C           1.93364134822907      0.69862175308363     -0.25680651006782
  C           0.17569959685152      0.67216435719328     -1.90449721464897
  H           0.10503925590769      1.57612368337787      0.04727848844239
  I           2.18661693520506      1.63702668514498      2.84598610385251
  C          -0.01657234372547     -0.53308415447029      0.48508737319781
  C          -1.47797327801880     -0.31486171014673      0.78529405067682
  C          -1.93843246884627      0.70279464879928      1.48993886993604
  O           3.03095349598632      0.66579396673385      0.06577033616827
  C           0.24485962529099     -1.90814123346065     -0.10886869901013
  H           0.53372998582482     -0.44918248248145      1.42974339252657
  H          -2.14979449557901     -1.07187456442432      0.40847726658718
  H          -1.29373987379925      1.46571078515036      1.89735101569032
  H          -2.98657716970649      0.80775818014220      1.70468328104230
  Br         -1.67388160101897      0.21420558873508     -2.29119218031132
  Br          0.50203036544931      2.50312163210729     -2.58559036282385
  Br          1.38500619825774     -0.53284560077364     -2.89759458996970
  H           1.30330373432792     -2.06717045399881     -0.30216163834915
  H          -0.31355017861667     -2.07167779216592     -1.02765726795747
  H          -0.07888210399047     -2.65679298118746      0.61074293842566
