20
Coordinates from ORCA-job NEB_reactant E -39.128920378650
  C           1.69099352985840     -0.93907410146805     -0.13675746875393
  C           2.31584766850204     -1.08412568959583      1.03720622949479
  C           2.26319418663102     -0.38071856932354     -1.37239315224387
  H           0.65794640279307     -1.24934544997247     -0.21202011302046
  I           4.31572961088913     -0.53056171596189      1.39908743607840
  C           0.27216509504056     -4.58913349926604      2.27686098240253
  C           0.41734016077132     -3.46609147969850      1.59166619801252
  C           0.50507038440589     -2.11478643066177      2.23348666451259
  O           1.82861007432242     -1.57014298967844      2.17118009371262
  C           0.19460658040533     -5.94541056152090      1.67067522534828
  H           0.18978674837933     -4.55279612856492      3.35576375093956
  H           0.50906423072944     -3.49738720661405      0.51458666318788
  H           0.30615886098785     -2.18842807481911      3.30468295627345
  H          -0.20463484739447     -1.40782057832942      1.78562050989313
  Br          0.92162268149091     -0.39939112083151     -2.79147219603846
  Br          2.85251860556576      1.50037809525631     -1.17855405243693
  Br          3.80700206751247     -1.42112345113620     -2.04359829156185
  H           0.28655855730731     -5.90110250710564      0.58873337511345
  H          -0.75389669336282     -6.41526776645897      1.92780184766390
  H           0.98991609516503     -6.57457077424904      2.06844334142242
