20
Coordinates from ORCA-job NEB_product E -39.141367431940
  C           1.72807916272640     -1.93447723618212      0.87474774565964
  C           3.12902247259425     -1.95708622461593      1.42652281729262
  C           1.75773718392756     -1.54541516587668     -0.59696676696095
  H           1.16029879605710     -1.14685067018965      1.38618329802148
  I           3.19347056460779     -1.39046775120511      3.51929072289299
  C           1.04112645993954     -3.27959428828444      1.27996949192792
  C          -0.45932546244472     -3.11740819938140      1.32174011959702
  C          -1.08764638492810     -2.38929842157252      2.22587236718682
  O           4.12201798922570     -2.27815925220521      0.87724402578689
  C           1.44648483927924     -4.48425567209322      0.44125816712165
  H           1.37285195741556     -3.45757566853984      2.31214828545725
  H          -1.01384842615692     -3.65582466083598      0.56755358752706
  H          -0.56167604708450     -1.85223101107401      3.00014602170859
  H          -2.15916534305021     -2.30179050472912      2.23248098758762
  Br         -0.03498627892901     -1.54653410901157     -1.36040981403112
  Br          2.41905787030144      0.32076165701762     -0.69442964939189
  Br          2.89579837190767     -2.59635284140059     -1.76356124315521
  H           2.52825063474659     -4.58742615418735      0.38398110054733
  H           1.04102566353252     -4.42855887747713     -0.56654176626707
  H           1.04822597633210     -5.38245494815574      0.90847050149136
