27
Coordinates from ORCA-job NEB_reactant E -43.957810141480
  C           1.91422974810867      0.91990802003165      0.35887591150146
  C           1.23058833101654      1.68183192883326      1.22834638173569
  C           2.84412063081630     -0.22644547822282      0.55272843128660
  H           1.74749112388380      1.14260386444578     -0.68290856862504
  C           0.26004398176301      2.70128243761686      0.67006799235805
  C           4.51784124455375      1.40305005228204      3.74522793102426
  C           3.28835586838162      1.89261993950913      3.66565420797991
  C           2.07133734489567      1.04984758405779      3.43896015600935
  O           1.15526826036368      1.69948401654202      2.56283197530694
  O           5.59336636434196      2.19173498813440      3.99445029414810
  H           4.71571867288070      0.34304069155364      3.63370302305553
  H           3.11741881043229      2.95187225056697      3.77998403839614
  H           1.50101884118775      0.95722748160548      4.37207398682708
  H           2.33681673124076      0.04853038996498      3.10393693279666
  F           4.01733748196687      0.10044208288567      1.17390570644649
  F           2.31582376248702     -1.23537032911744      1.31306925695032
  H           3.11933321596701     -0.67838403530112     -0.41208076769063
  C          -1.10411112393244      2.05918370189190      0.41926820174549
  H           0.64997546913478      3.11738787956887     -0.25813379661955
  H           0.15158798438283      3.50412218098991      1.39939517681993
  H          -1.01779695980034      1.25442122978404     -0.30667438018632
  H          -1.80344902880133      2.79937655809905      0.03875578373958
  H          -1.50111056156510      1.64909366335520      1.34403668507126
  C           6.84298935087216      1.54619492917176      3.92046904847984
  H           7.59360437925684      2.30277941892182      4.14183409244799
  H           7.01936564533334      1.13937241540897      2.91963222739312
  H           6.91683443083186      0.73599213742018      4.65409007160177
