24
Coordinates from ORCA-job NEB_reactant E -40.790572444470
  C           1.64033143078975      0.25545984473848      0.06002382556327
  C           1.86771640408019     -1.05465754832064      0.19813096704705
  C           0.79723464123117      0.83858608815370     -1.02102443387576
  H           2.11464257132006      0.92689437004321      0.75477983985434
  O           2.63123762716638     -1.48348496473877      1.23554281017285
  C           3.85591411081080     -3.64612035891360     -2.31900665861449
  C           3.35758687298964     -2.50656982324657     -1.86971291305401
  C           1.90321945885776     -2.14876761117260     -1.91145369508518
  O           1.33694287065146     -2.02359635345106     -0.60132471473340
  C           5.30360535702504     -4.01189377016506     -2.25423444249819
  H           3.22093353932300     -4.39050920451860     -2.77974792613940
  H           4.00007115094903     -1.76414907091662     -1.41232468800428
  H           1.31551562285363     -2.93655749674430     -2.38636359766917
  H           1.78180427735445     -1.21381989299978     -2.46971899843565
  F           1.55617796604209      1.17841399782045     -2.13616933788001
  H           0.32173012909220      1.76672726321297     -0.69283194456620
  H           0.04205641742990      0.12890900953536     -1.37408470363746
  C           2.66703017138209     -2.87543016398390      1.48918365552453
  H           3.27702589375197     -2.99023542929384      2.38251863668777
  H           3.12014938447489     -3.42253112764136      0.65735444458853
  H           1.66304492707280     -3.26653030670236      1.66994937991439
  F           5.69728460720127     -4.62646950761629     -3.41922498216951
  H           5.48830015325166     -4.73795053775634     -1.45054119768613
  H           5.94574441489876     -3.13621740532245     -2.11861932530389
