18
Coordinates from ORCA-job NEB_product E -33.647666347990
  C           1.88282860454945      0.27945084441306     -2.27615259930775
  C           0.63370206175756     -0.33498367556449     -2.84696527864820
  Br          1.30550765922874      1.22835376959863     -0.68277157148519
  H           2.59860508328343     -0.47777834673353     -1.95605020452964
  Cl          0.38865311662777     -1.98295703304631     -2.28844921499022
  C           2.51853342745957      1.24367605698171     -3.28758281352560
  C           3.70533703811303      1.94762940836457     -2.68978976329832
  C           3.72810413429893      3.23518859903264     -2.40441508869571
  O          -0.14984212214419      0.19070776271519     -3.56126073265535
  O           2.88180922827605      0.41389522396405     -4.37598066027049
  H           1.75928620767546      1.97682186333160     -3.60549988836906
  H           4.55942309941259      1.30884848739193     -2.51072657607814
  H           2.87677085705224      3.87141227343817     -2.58335556865967
  H           4.59227262485090      3.70273310730114     -1.96608068145017
  C           3.14887095106800      1.12595887447137     -5.56161169038639
  H           3.41518869926330      0.37986239893197     -6.30665045975436
  H           3.97911184628843      1.82758057679388     -5.42764490030326
  H           2.26243748293873      1.67749980861442     -5.89411230759247
