18
Coordinates from ORCA-job NEB_reactant E -33.640674697230
  C           1.56304250548288     -0.39943597056168     -0.68685123804480
  C           2.39741034089894      0.59578949768212     -0.97539329527924
  Br         -0.29087844240343     -0.17296329477463     -0.91190191188969
  H           1.86990935563465     -1.34910058578300     -0.29205351646864
  Cl          4.10920035228621      0.30723863845926     -0.77179693594218
  C           2.21688891744625      2.33777629921431     -4.60263402686740
  C           2.95932451793222      1.95982067046237     -3.56622620635765
  C           2.81689185966519      2.59277097222958     -2.21941154467749
  O           1.99602976923017      1.80460611805209     -1.34376125164788
  O           2.21276235512544      1.84996913949576     -5.85438527791753
  H           1.50831550090566      3.15187529104175     -4.51941450521327
  H           3.65888026500676      1.14076235022391     -3.63030599217642
  H           2.28606505051752      3.54348539366166     -2.28137352026484
  H           3.79542869462297      2.74471846673917     -1.75061428516095
  C           3.06145291998765      0.76031722042555     -6.13960016079486
  H           2.89305666188068      0.51396077268049     -7.18608712219903
  H           2.81621706349459     -0.10439796110830     -5.51586152527472
  H           4.11170231228564      1.02840698185960     -5.99032768382340
