15
Coordinates from ORCA-job NEB_product E -30.846040853960
  C           1.99618527297228     -1.57793497637015     -0.11720754675977
  C           3.08755111987393     -1.51234567985085      0.92808621760179
  C           2.39469545710806     -0.80799022180755     -1.28080696460556
  H           1.10853670341089     -1.08542682510162      0.31132416700662
  F           3.27825031060629     -0.23320861654437      1.32752573963446
  C           1.63975650978591     -3.02422824550233     -0.48147009701777
  C           0.44949126104324     -3.09071898820138     -1.37192004786420
  C          -0.59582762324409     -3.86050182614887     -1.12829250412900
  O           3.70661451825728     -2.38975663027985      1.40614904090543
  I           3.32752310425630     -3.99749286385094     -1.47855417533824
  H           1.48813610439655     -3.60131103385869      0.43200062629862
  H           0.49624423715707     -2.47067840450533     -2.25776510666913
  H          -0.64676095090566     -4.49286762867340     -0.25674581125430
  H          -1.44011065115103     -3.89075489710426     -1.79378677405969
  N           2.70151462643297     -0.22328316220040     -2.21053676374925
