15
Coordinates from ORCA-job NEB_reactant E -30.835213661340
  C           1.82379570055747     -0.18229415399087      0.04461114004958
  C           1.69883378770687     -1.11585857381776      0.99781020931140
  C           1.39279637859575     -0.28406279213303     -1.28328313705228
  H           2.30569315738112      0.74692130278751      0.31137903146651
  F           2.17706676371401     -0.83433556740235      2.21551781259723
  C           1.88083935892695     -4.77151694119422     -1.21571889920483
  C           1.71862499280773     -3.47640715431280     -1.02530638011820
  C           0.63265990067885     -2.92559538175048     -0.14692295871837
  O           1.15966263144111     -2.32586097348232      1.03154260274634
  I           3.38224814636008     -5.57067836324610     -2.43865469932989
  H           1.24699592102788     -5.52028362074645     -0.77030262322225
  H           2.37215638871623     -2.75253361117650     -1.48965079754966
  H          -0.00875700739729     -3.72866037836181      0.22368060004000
  H           0.02847605238240     -2.20050373774457     -0.70352460215827
  N           1.06190782710082     -0.32533005342826     -2.38217729885731
