16
Coordinates from ORCA-job NEB E -36.066892670650
  C           0.26600072577329      1.15774346434174      1.07955676081024
  C          -0.91299384347044      0.64223633157122      0.73180984444969
  I           1.03830896988313      2.69857950848242     -0.18428160312260
  H           0.68064193991606      1.40494447503214      2.03853044187707
  N          -1.37310741384807     -0.55701367153754      1.43783601869138
  C           1.27926292650159     -0.76999943298188     -0.03826489961831
  C           0.75246089937275     -0.30531292072197     -1.16296295062711
  C          -0.66759509359262      0.04766223409884     -1.51512507582540
  O          -1.42406971752708      0.74088467390083     -0.49769490801370
  Br          3.01314169406103     -1.56838776985229     -0.06589774608965
  H           0.92645744407614     -0.87007324516701      0.96485369968603
  H           1.37327317481776     -0.37322383737335     -2.05208951554744
  H          -1.20497471686939     -0.88432219095406     -1.73096755256258
  H          -0.69875607252716      0.68121651456235     -2.40252443145230
  O          -2.07375951818893     -1.31930807155391      0.81957160984886
  O          -0.97429139837804     -0.72562606184752      2.57765030749585
