16
Coordinates from ORCA-job NEB_product E -36.109195637250
  C           2.90380790252088     -1.74379859925723     -0.20335881842058
  C           1.41998516284535     -1.76276840503995     -0.15396140348755
  I           3.27450897961902      0.38186091793989      0.09947486564904
  H           3.34501060678922     -2.22915427798980      0.66973246491093
  N           0.87106937081801     -1.70708792001251      1.29977366797075
  C           3.46320805576578     -2.28819951497794     -1.50457218398196
  C           2.98909138065333     -1.60075561798916     -2.73562515946078
  C           2.47027066929755     -2.23832077582843     -3.76854722832405
  O           0.62288255651827     -1.78934170587215     -1.03010040001055
  Br          5.44505615508189     -2.17309540078926     -1.41328162965037
  H           3.24519597553612     -3.35990492386361     -1.55042105985888
  H           3.12528307693396     -0.52753114280815     -2.75267334576772
  H           2.34029679456217     -3.30812377949835     -3.77584862850636
  H           2.14462397947601     -1.70902766764042     -4.64586937586660
  O          -0.32094360804618     -1.66259864109515      1.39240505137346
  O           1.68465294162861     -1.73995254527778      2.19047318343122
