16
Coordinates from ORCA-job NEB_reactant E -36.108276697020
  C           2.16798111808513     -0.52919288886843      0.02599078125806
  C           1.45432861217040     -1.58704454058129     -0.35824386502218
  I           3.29060423695425      0.82383763973256     -1.09718994068282
  H           2.17247364749500     -0.29772640036032      1.08023428020685
  N           0.77251621462428     -2.33155095837169      0.73139842625694
  C           3.86475687201440     -3.08214076458792     -1.79273620918410
  C           3.33482636054375     -2.23386344007204     -2.65748650966092
  C           1.87126015767604     -1.90622413788360     -2.70282495466668
  O           1.17791290621793     -2.20804683643732     -1.50645549119658
  Br          5.70975255482790     -3.46994950819961     -1.75202575251575
  H           3.29856937672581     -3.62120888015908     -1.04878949902012
  H           3.94342728383608     -1.73346691652177     -3.39574253818768
  H           1.37589116843385     -2.52933295720942     -3.45613896091060
  H           1.72556743846957     -0.85725104801248     -2.98326247028415
  O           0.30021523990215     -3.39603729267954      0.43366522781168
  O           0.75081681202345     -1.82230106978803      1.82640747579805
