20
Coordinates from ORCA-job NEB E -33.338495745920
  C           0.10544248595747      0.99994345011362     -0.29508051003014
  C          -0.87985881057662      0.38933445901020      0.50111488813277
  C          -0.17107071752723      1.20275901293328     -1.76723800372780
  H           0.59032264514661      1.86022519209677      0.15730286459986
  C          -0.85301598388632      0.69223495151848      1.98929319575974
  C           1.45695393829909     -0.38453197800698     -0.28532650106565
  C           0.88161615847551     -1.58767612532002      0.14842062572572
  C          -0.38851138890272     -1.89279328989320     -0.40978212160503
  O          -1.40376375200730     -0.73643468020299      0.14152179838325
  Cl          2.79168755545330      0.22743236643842      0.66572137516127
  H           1.67624477823113     -0.28142691752620     -1.34087799228264
  H           1.05347109811871     -1.88845087735411      1.17397790683177
  H          -0.88038924029877     -2.78623966268515     -0.04561308782755
  H          -0.47919902651680     -1.77941689532817     -1.48640026844225
  H          -0.64010443524371      0.32994550046243     -2.21146478595026
  H           0.73748288823805      1.44526932683327     -2.31341451212714
  H          -0.85764320595736      2.04231575279994     -1.87476870705428
  F          -1.90011860778240      0.10350254880708      2.63883320058415
  H          -0.90756315225127      1.76750444143071      2.18514999722140
  H           0.06801677303062      0.27650342387262      2.42863063771280
