20
Coordinates from ORCA-job NEB_reactant E -33.380920377810
  C           1.38847236386776     -0.06646881223224     -0.08804520144701
  C           1.50224869953768     -1.04523644512015      0.80099899752784
  C           1.12430909626519     -0.25497977985876     -1.54386254774173
  H           1.47971676917209      0.95143166086067      0.25992709595936
  C           1.72651093319977     -0.82036706536547      2.27580658667583
  C           4.77862467691375     -2.67943240443543      0.95669726322980
  C           3.58057433725716     -3.23705893155500      0.99617813696834
  C           2.53572150532230     -2.99933055631102     -0.05504780756889
  O           1.36904353255532     -2.38771280870347      0.47653224592778
  Cl          5.96840270609728     -2.93133051982261      2.17139220430990
  H           5.10827575410420     -2.03479853420440      0.15572985451073
  H           3.28490555130863     -3.86935142463769      1.82065498321489
  H           2.18683452757042     -3.95766819232437     -0.45144038849938
  H           2.95098628782139     -2.39676210414011     -0.87167631611628
  H           0.87453438724402     -1.28981697490412     -1.76243505888074
  H           1.99642454416509      0.03670725128638     -2.12983100879200
  H           0.29494160186121      0.37995311696024     -1.85067736784847
  F           1.77087778354015      0.51159724652130      2.58962521624753
  H           2.67891215981880     -1.26020321254705      2.59773217561707
  H           0.90718278237778     -1.26597150946669      2.85254093670545
