20
Coordinates from ORCA-job NEB_product E -33.392110789690
  C           2.45724266938718     -0.72632197153022      0.29970464346728
  C           1.40547038432556     -0.82249168895789      1.40319911680295
  C           1.75952708500116     -0.64822034663837     -1.05979873639782
  H           3.07162642577189      0.16468141366637      0.45874306935155
  C           1.66147313180185      0.12601749241314      2.56021640953822
  C           3.38427456443276     -1.95304019490848      0.32991044308852
  C           2.68795132152382     -3.25697996377369      0.14470855023459
  C           3.07242667586949     -4.15972840517361     -0.73942804992293
  O           0.47178844982167     -1.57262309014775      1.35922781560207
  Cl          4.24607771003971     -1.99742274685418      1.91898808944656
  H           4.17195582135966     -1.82654555925058     -0.41828319402064
  H           1.84560423536401     -3.43757708451417      0.79627379666134
  H           2.55890628152800     -5.09902301289658     -0.84535531561751
  H           3.91450494935880     -3.99686495599762     -1.39287908137516
  H           1.09198655636294     -1.49711574699594     -1.18200613734443
  H           2.49099101476500     -0.65626222937532     -1.86384339676099
  H           1.17502655869602      0.26587625048894     -1.12790912908264
  F           0.69117014351651      0.03686514026826      3.51496002356201
  H           1.67738991049635      1.16306532284245      2.20405696132833
  H           2.62050611057762     -0.11978862266474      3.03241412143870
