19
Coordinates from ORCA-job NEB E -33.795980966820
  C           0.80350985831668     -0.34692235377262     -0.88840141038667
  C          -0.34673242389615     -1.12093825307280     -0.71089507675706
  F           1.99413582822992     -0.79752298094164     -0.41669712642659
  H           0.95897172766577      0.18843759529110     -1.81997646101550
  C          -1.55769923285840     -0.79648794933863     -1.57200635103024
  C           0.49255794035345      1.08105874384346      0.47915768389078
  C           0.37085996215489      0.24528630667013      1.60727677370233
  C          -0.71879969412718     -0.60574025705998      1.74005570089240
  O          -0.54354622015432     -1.77007249504225      0.36808984841527
  N           1.56563630327231      1.94456242825689      0.38466780432611
  H          -0.41542295017308      1.48769894177475      0.04462564630460
  H           1.28066170089143      0.00733560361725      2.13995632427705
  H          -1.69669893145291     -0.25555695809776      1.43678940805486
  H          -0.72971373325694     -1.30467944157374      2.56098021667251
  F          -1.27836469516882      0.14088832082842     -2.53375006651863
  H          -2.37008412718413     -0.39496391245712     -0.95307784574128
  H          -1.90904727075504     -1.69778533614558     -2.08521706544796
  H           2.44171868395525      1.55948284411186      0.70966578214853
  H           1.65805727418728      2.43591915310826     -0.49124378536049
