19
Coordinates from ORCA-job NEB_product E -33.819126060790
  C           2.01385091495338      1.88086114173809      0.07297237137806
  C           0.73271482996025      2.12164904485194     -0.72468712599080
  F           1.81313014909398      0.84262493352174      0.94665730461281
  H           2.84665572171987      1.59062679877439     -0.57989592419224
  C           0.99917365212143      2.86112589897790     -2.02149381470080
  C           2.38371419808904      3.15840212056313      0.87419577961708
  C           3.39195788644325      2.80449899318367      1.93494430965744
  C           3.18976809369968      2.96357540183464      3.22832429934440
  O          -0.35047119131880      1.79884667891742     -0.33364708706159
  N           2.87415923184995      4.16203087942381     -0.06312974747775
  H           1.47132416304593      3.54021625617944      1.34370813973314
  H           4.33048078294735      2.41647828676974      1.55916000236136
  H           2.25639903817031      3.33873062599468      3.61370054924061
  H           3.94372762781924      2.71502772706885      3.95503349968606
  F          -0.16041448240624      3.24118229747381     -2.63268217215472
  H           1.54050981929987      2.21458365902210     -2.72176600499814
  H           1.58976872238734      3.76097379565181     -1.80094015395787
  H           3.82156203668694      3.93513073735884     -0.35185210472173
  H           2.90028880543723      5.07123472269399      0.38349787962469
