26
Coordinates from ORCA-job NEB_product E -52.033915461240
  C           2.40786184654534     -1.58033691942814      0.35389216642662
  C           1.34894342295602     -1.70107510263368      1.48301661198414
  C           1.70954715452507     -0.96682299231165     -0.86040110393883
  H           3.20964730948381     -0.90153530136000      0.65703829734836
  C           1.43664846390450     -0.66884968237995      2.57473560376767
  C           2.98235288678478     -2.98065936715883      0.03766168584303
  C           3.83818883781311     -3.02150817576289     -1.19803930348747
  C           3.58125014481431     -3.79003360316504     -2.23866536260737
  O           0.52510792083756     -2.57146284944268      1.44666783553341
  C           3.84694343683464     -3.47893415975142      1.20044912665983
  H           2.14448476622816     -3.67960762860197     -0.05508183372419
  H           4.72379262047863     -2.40228905588990     -1.16422671654450
  H           2.70461442431217     -4.41454732153556     -2.28247887964925
  H           4.22936288745640     -3.81125837437237     -3.09703248723041
  Cl          0.61772014130224     -2.11201362214004     -1.65166848056454
  Cl          0.73437672875541      0.44920028217045     -0.37032958137628
  Cl          2.88540596668230     -0.37625385993171     -2.06251899137922
  C           2.50840636435961     -1.03816992682158      3.60502253847544
  H           0.46568452509741     -0.62503221587441      3.07039871162308
  H           1.66931884580905      0.30719377568917      2.14864534472917
  H           2.29920895253551     -2.01293645846477      4.03611288776813
  H           2.51170903111662     -0.29769373380466      4.40047845426415
  H           3.49728108683587     -1.06096586355732      3.15578567171462
  F           4.78430195035866     -2.56072428593092      1.54743671327922
  F           3.12534861792385     -3.71358703928705      2.31811849473040
  H           4.37349166624897     -4.41079651825307      0.94278259635482
