26
Coordinates from ORCA-job NEB_reactant E -52.022048153270
  C           1.11348433249223      0.02451134804428      0.11510382168016
  C           1.52094104066244     -1.23391529588096      0.34917386780988
  C           1.10401624422133      0.63168635079520     -1.23210863697413
  H           0.77929198456088      0.64389682736729      0.92797246564291
  C           1.54311582334816     -1.76256538383170      1.75625196076288
  C           3.96137029243749     -4.42751579469656      0.94122066530709
  C           3.65993126719453     -3.44787921447950      0.10625232124477
  C           2.33982098946974     -3.30607344444842     -0.58799246354092
  O           1.92349504500238     -1.96339856165227     -0.71493565691210
  C           5.28898955674775     -4.55847902037793      1.62414422062406
  H           3.25956200594728     -5.20547592508703      1.20529300658393
  H           4.38404699609806     -2.68112053779285     -0.13521328779924
  H           1.56837647603728     -3.92503473834834     -0.11330045773620
  H           2.45121770237270     -3.63678472158645     -1.62786170397855
  Cl          0.04675496188220     -0.27815437478351     -2.35630539821788
  Cl          0.51730142785373      2.30121944283598     -1.16598828236321
  Cl          2.74203651630672      0.65234765808652     -1.95547002267596
  C           2.76683865804268     -1.24690697322731      2.51909127660971
  H           1.54338963839556     -2.85136667156304      1.76722651011511
  H           0.64029830144289     -1.42073858323198      2.26430145553676
  H           3.68912386197254     -1.56586211067799      2.04199180526312
  H           2.75696412677676     -1.63136108280743      3.53563804885646
  H           2.75823270330004     -0.16118254553577      2.55479990740274
  F           6.06062995840310     -3.46053296856040      1.45653703524690
  F           5.11596909282132     -4.70193282566535      2.96509142999566
  H           5.86730099621021     -5.43228085289448      1.27648611151607
