22
Coordinates from ORCA-job NEB E -35.526504355210
  C          -0.33351139523643      0.04851309682021      0.67764300467898
  C          -1.65665140511831      0.50991458878163      0.41020063219126
  C           0.63015056521344      1.04706911704690      1.29648139554302
  H          -0.32995112726721     -0.89614575581644      1.22007359265046
  H          -1.83580108294580      1.57524484198835      0.26018120692814
  C           0.22065632831429     -0.56420855751604     -0.88000654321324
  C          -0.89137702761793     -0.96971381399860     -1.70260558278852
  C          -1.98241348511875     -1.52984900421670     -0.98232424734011
  O          -2.51613626704683     -0.29088994550764     -0.11079454709976
  N           1.02551967783394      0.46594394076364     -1.53855146180492
  H           0.88795630561067     -1.36032371293850     -0.55121011305001
  H          -1.15479317247904     -0.27922799287746     -2.49534111325012
  H          -1.73566480172402     -2.28886560727944     -0.24232689245462
  H          -2.86725252085032     -1.78846815619906     -1.55114644690577
  C           1.97853320205504      0.42958760656852      1.65558411277734
  H           0.16555271751925      1.43118574935382      2.20852534190691
  H           0.77312480610455      1.89807526205381      0.62814427625304
  H           1.84213275513689     -0.43937282782776      2.29647868613090
  H           2.58436614059430      1.15458359186382      2.19262725657766
  H           2.53105786926551      0.12740263114253      0.76988026890728
  O           0.44269939350804      1.42876929076264     -1.97839246970556
  O           2.22180252424871      0.29077565703177     -1.58312035693235
