22
Coordinates from ORCA-job NEB_product E -35.573302561840
  C           2.29734348316341     -0.83279035340712     -1.52070448482393
  C           1.00982249553554     -1.06442197549303     -0.75837670906573
  C           2.66054769473759      0.65468216445499     -1.48426926785811
  H           3.08671699703328     -1.42547680742323     -1.04345265379748
  H           0.18534373855579     -0.40210371417680     -1.08486414278182
  C           2.08402037668399     -1.38149630787749     -2.95766015784459
  C           1.16949658224218     -0.53778181992808     -3.78921713408243
  C          -0.08056832790949     -0.86622467807211     -4.05500873787149
  O           0.86234283424814     -1.87292458813771      0.10891901022074
  N           3.43286199182763     -1.44937625272721     -3.58468237459450
  H           1.72610380324453     -2.41446546011999     -2.88712263300694
  H           1.61267763298946      0.36687985247133     -4.18081111327844
  H          -0.52647694386061     -1.77101467568078     -3.67474146068244
  H          -0.71167444211535     -0.23875723913494     -4.65915259158018
  C           3.08128677563155      1.07617291437693     -0.08090741048982
  H           1.79779372150937      1.24500094703065     -1.80069327502604
  H           3.47751002263871      0.85175516641340     -2.18128174251679
  H           2.28120894109596      0.89390634553516      0.63359540869515
  H           3.32390417706565      2.13537393983985     -0.06469215723730
  H           3.95889575667705      0.51982912960544      0.23993690953764
  O           3.89273547315332     -0.43131276968439     -4.03924941295175
  O           3.98580721585227     -2.51975381786486     -3.55946386896374
