22
Coordinates from ORCA-job NEB_reactant E -35.566414017180
  C           1.59611290539021     -0.04483187863666     -0.18384444854722
  C           1.03891499103259     -0.28032599357419     -1.36049643068919
  C           1.95003195463570      1.31983989640028      0.31114927096017
  H           1.82457820604712     -0.87551081844613      0.46689130113857
  H           0.79223844278024      0.51887993740451     -2.05318477487648
  C           1.88575266335917     -2.22090683341362     -5.12407162036747
  C           1.69610714871932     -1.61758727883457     -3.95705393728208
  C           0.45104706636414     -1.70680184358767     -3.13332822707328
  O           0.69251124465515     -1.54672610004381     -1.76285563296350
  N           3.10945090399306     -2.05700189076894     -5.85256598122099
  H           1.17406920751642     -2.86404338311046     -5.61828718143201
  H           2.49340210869552     -1.00447856920129     -3.55090213302609
  H          -0.02255275584567     -2.68574282447986     -3.24722606162430
  H          -0.25593666358195     -0.93912319703772     -3.49522122279377
  C           3.45381883418396      1.44283019200080      0.55826042332268
  H           1.42054520593530      1.51034281700028      1.24876484269053
  H           1.63327302098273      2.07104799241941     -0.41478597334189
  H           3.78024534677971      0.70695915028326      1.28917303486943
  H           3.69696852401515      2.43391075019838      0.93347859733620
  H           4.00424586999586      1.27731049188614     -0.36481384798974
  O           3.95972962735805     -1.32505009363277     -5.39480677919252
  O           3.20524614698822     -2.67179052282538     -6.89287321789706
