20
Coordinates from ORCA-job NEB E -44.055285574760
  C           0.85512656983393     -0.84254642143229      0.17220041057966
  C          -0.34445890372284     -1.15545953751473      0.84437552233372
  Cl          2.23079678638746     -0.40137149451358      1.16554407418738
  H           1.16676718477085     -1.51371635215103     -0.62484172716349
  C          -1.28637347607564     -2.15590760109455      0.27815948914540
  C           0.41406568034284      0.78807819190619     -0.68988772717844
  C          -0.07031133825610      1.55543736823347      0.37374702407778
  C          -1.21179825114901      1.08198038805611      1.10671137492907
  O          -0.83294261581247     -0.30845293496445      1.71442882524259
  C           1.63498066580327      1.27324405093305     -1.44083737172380
  H          -0.31308149215985      0.36619450763009     -1.37924214868972
  H           0.60722545025382      2.24072690092208      0.86160024607540
  H          -2.08844498589830      0.85147038171921      0.50021899079300
  H          -1.47539407060338      1.66271039179154      1.98426021124264
  Br         -0.42254296257866     -3.85462897990800     -0.07909437552285
  Br         -2.76850925006036     -2.41779763035397      1.48166624517379
  Br         -2.10147693002461     -1.56319009708027     -1.51209256778475
  F           2.44741163492259      2.04646905871176     -0.66033272303565
  H           1.31574173902110      1.90258952529650     -2.28065509888437
  H           2.24321856500535      0.44417028381286     -1.81592867379736
