20
Coordinates from ORCA-job NEB_product E -44.090956998090
  C           2.06546471708662      1.31073792270723     -2.10580833216448
  C           0.80564041371206      0.78005029725376     -2.73815947270254
  Cl          1.74215917053724      0.97133533179118     -0.36478015627300
  H           2.95984648737336      0.74765319228212     -2.38248522650228
  C           0.88670079034908     -0.64215421841959     -3.27723781831927
  C           2.25716417700329      2.81228159045651     -2.31693606530687
  C           3.40211088985285      3.30797663642426     -1.47893767042251
  C           3.28686812785823      4.25202718879872     -0.56617995090617
  O          -0.21000609977161      1.40065033327105     -2.85219613862901
  C           2.53162407279067      3.08860941498326     -3.80259007050964
  H           1.33606580320251      3.33187281128102     -2.03423691841363
  H           4.35650828904474      2.84089051886519     -1.68239944721222
  H           2.34408900712307      4.73027069005599     -0.35899141076539
  H           4.13208438818237      4.58969385991029      0.00730931723397
  Br          1.79037326007521     -1.90067052432335     -2.12845916951563
  Br         -0.87488466487020     -1.28851272780967     -3.71428964184629
  Br          1.93276379989697     -0.42609555829875     -4.92806697832681
  F           2.67147569191587      4.43333817284486     -3.99761415285856
  H           1.69895589594490      2.76391899942444     -4.43564540784335
  H           3.46419578269276      2.61832606850147     -4.13489528871631
