20
Coordinates from ORCA-job NEB_reactant E -44.086129662510
  C           1.78866482068617      0.04920574009851     -0.13154191006476
  C           1.63835102682402      0.38911804201071     -1.41243391782177
  Cl          2.38420863633303      1.04141687149641      1.14497255038484
  H           1.52352477174727     -0.93734664479859      0.21141286087761
  C           1.11139263820899     -0.57866810788131     -2.43132889782731
  C           2.42198999119758      3.60790309280302     -3.78730152421795
  C           2.80725248870660      3.67674275950264     -2.52525330670096
  C           2.56238394146042      2.62593689449576     -1.48735762858650
  O           1.89897595119608      1.52549465736605     -2.08767620484482
  C           2.67845368055310      4.67213936399793     -4.80271551145985
  H           1.88200801373438      2.75625753280274     -4.17169995443248
  H           3.34415786668470      4.53919647937134     -2.15727770427055
  H           1.94587185633918      3.04505133071781     -0.68225243511405
  H           3.52013643602389      2.30090782125368     -1.06221948048940
  Br          0.44501874072522     -2.24937173076103     -1.75626067145012
  Br         -0.32686629375362      0.28958095468523     -3.41998996019956
  Br          2.55590372185447     -0.95946196766642     -3.70188291317898
  F           3.35690496480795      5.74045769048724     -4.27394745616875
  H           1.73468432064981      5.06140856433101     -5.20457842505374
  H           3.28898242602076      4.28413065568724     -5.62766750938091
