20
Coordinates from ORCA-job NEB E -51.957246182060
  C          -0.13930193503776      0.96594285844608     -0.50072244076001
  C           0.35142928370682      1.64553761963234      0.64202306051553
  C           0.47123628260788      1.27671063268885     -1.84633587370743
  H          -1.22622679944967      0.97255729275050     -0.55123001713211
  Cl          2.02821295621056      2.14607256749227      0.68214466735806
  C           0.07393968761996     -0.87590264220993      0.13728133573261
  C          -0.54178628042703     -0.83471865491439      1.40182547737510
  C          -0.01905600165466     -0.01081736109416      2.41323541923582
  O          -0.23565021331924      1.53165489797196      1.75111392627529
  C          -0.51973346608496     -1.89831945435810     -0.80212576086179
  H           1.16153829872007     -0.88127595119511      0.11022421735902
  H          -1.58400871662081     -1.11750890241003      1.46957055713942
  H           1.05717976774334      0.01442845317697      2.54821657211858
  H          -0.57742417518385      0.05511408709434      3.33652421036595
  Cl          2.10681233156575      0.62259311683592     -2.05293778777300
  Cl         -0.56426310815910      0.70512427320550     -3.17321868495458
  Cl          0.56787014226820      3.06629277955463     -2.02788206799275
  Br         -0.57639606564185     -3.63542605645646      0.15407167502606
  Br         -2.35532904041479     -1.48573505992474     -1.29762977646308
  Br          0.52095705155113     -2.26232449628644     -2.39414870885670
