20
Coordinates from ORCA-job NEB_product E -51.996794124950
  C           1.82499793857936     -2.11441398210178      0.42460521664018
  C           3.11671400172734     -2.27639740132472      1.23878566856234
  C           1.96135684812419     -1.57397761245233     -0.99922720836402
  H           1.28903484872223     -1.32136863506743      0.96988732625272
  Cl          4.60691917472771     -1.77741313159268      0.50786447605412
  C           0.94127188741485     -3.37622635672680      0.69192879256651
  C          -0.53510230203838     -3.08479070882924      0.56415532906649
  C          -1.21566174913557     -2.44863610884383      1.49880783315208
  O           3.10012284941384     -2.67451079178101      2.35940600956802
  C           1.28960282136320     -4.67651641081464     -0.02267993491024
  H           1.13694131730145     -3.57370769449551      1.75800394996459
  H          -1.03102454919676     -3.43532723951691     -0.32852102846890
  H          -0.75300359568007     -2.09537944518020      2.40635089746228
  H          -2.26757013247256     -2.25671743384047      1.39005123117037
  Cl          3.02850863335802     -2.50635081689240     -2.05593659311715
  Cl          0.35522347566038     -1.45346714488656     -1.76787771412984
  Cl          2.58833967853806      0.10701498152460     -0.90769634762548
  Br          0.32795405724568     -6.10480263407270      0.92717284858301
  Br          0.72498639829623     -4.80808206455850     -1.87647776719810
  Br          3.18848839805079     -5.10832936854689      0.07409701477102
