17
Coordinates from ORCA-job NEB E -25.930193625340
  C          -0.20117265185463      1.54705217715213     -0.09240739645058
  C          -1.17156141692441     -1.02525730341906     -1.01912845737674
  H          -0.41400516814246      1.74454717999657     -1.12897579869267
  H          -0.97500958775506      1.83829374833077      0.59281728325447
  C          -0.55229035810685     -0.96153645250655     -2.31895979698910
  C           0.90761864858786      0.94726408893504      0.31736515855412
  C           1.16499617031448      0.59538188208675      1.70663984932229
  C           0.23209195783534      0.23927024104290      2.58161086551160
  O          -1.83705151807265     -0.93477324082174     -0.07257837165482
  Cl          0.38163657834318     -2.37599157103971     -0.23564246482882
  H           1.64913220365853      0.64041726293468     -0.40541950167483
  H           2.20744963223264      0.58259451506410      1.99745071579063
  H          -0.80977268761111      0.16000247154099      2.33330158816002
  H           0.51947194956297     -0.10405727287359      3.56085918757447
  H          -1.10379732602385     -0.41763881760158     -3.08939339133960
  H          -0.40282299561964     -1.99992678264813     -2.62101455511022
  H           0.40508656957567     -0.47564212617354     -2.10652491405026
