17
Coordinates from ORCA-job NEB_reactant E -25.999459105100
  C           2.67475252351783      1.23766891207667      0.22721842099735
  C           1.51955024105702      1.78592806316558      0.57725777923102
  H           3.38878735609975      0.85287732616722      0.93136225092575
  H           2.94572626826975      1.17133449994925     -0.80927047957109
  C           0.53305507468124      2.34788069541605     -0.40242113230424
  C           3.32088828015639      3.31549926156516      2.81482008677119
  C           3.00190680715646      2.13369453066355      3.31030428946044
  C           1.77177326858515      1.36585301547273      2.91478348286816
  O           1.03845337119826      1.91949152173812      1.85325649070071
  Cl          4.72839432448467      4.17476981080860      3.29701756102336
  H           2.73093698223165      3.82911581824689      2.07260477172301
  H           3.61851961510730      1.65405752689898      4.05620177300156
  H           1.07655884010993      1.35328352692832      3.76317036992020
  H           2.04952885770313      0.32563886084992      2.68993276180426
  H           0.32282518863072      3.38704688182900     -0.15706001434606
  H          -0.40398509937745      1.79772037966639     -0.33890186901972
  H           0.91952810038821      2.28613936855756     -1.41397654318590
