23
Coordinates from ORCA-job NEB_product E -45.270643021290
  C           3.08463031883568     -0.43334334883107     -1.10051200715321
  C           1.62029601261988     -0.75574934073337     -0.95502262609913
  N           3.41119750334060      0.86454439812467     -0.55159350213813
  H           3.69082344726680     -1.20186555870494     -0.60878083802811
  C           1.20444313541425     -2.23141636903197     -1.22695005292531
  C           3.45206415598665     -0.51401843037094     -2.64268301148042
  C           2.89955268090819      0.69390560008353     -3.34553124249665
  C           1.78028635700201      0.67014763687625     -4.04418114472061
  O           0.77198455700639      0.05121993095764     -0.68758244322893
  O           4.81813638739815     -0.74868600639096     -2.81846160774560
  H           2.98732372615026     -1.41908105941773     -3.04943450173102
  H           3.46704800585173      1.60485718816421     -3.23017454145597
  H           1.20191269110851     -0.23098456303200     -4.16727488305903
  H           1.39553344610457      1.55370066326106     -4.52353362894893
  H           3.35695014376576      0.84362450943725      0.46133670014581
  H           2.73683160554777      1.55133130531244     -0.87725999554218
  F           0.22040624579279     -2.61690850816991     -0.41399601333765
  F           0.76587745706086     -2.38141458828163     -2.48654950398822
  F           2.21471569386667     -3.09600960472296     -1.06103775262586
  C           5.71058715617316      0.31507403609465     -2.53504903059036
  H           6.69188231154992     -0.14723800758247     -2.44294911268703
  H           5.44687891069488      0.81808071976770     -1.60326635674230
  H           5.73543805055451      1.03902939719056     -3.35541290342118
