23
Coordinates from ORCA-job NEB_reactant E -45.292974324370
  C           1.30954610842653      0.06688034272013      0.21911824564011
  C           1.67786017423566     -0.53941643910400     -0.92269228776237
  N           0.60911748168694      1.23592269589743      0.26592032551210
  H           1.61436277913764     -0.35145273322985      1.16681616601794
  C           2.51605136610168     -1.78494525854439     -0.86715689170991
  C           3.76291829706651     -0.46733870508309     -4.24176710744748
  C           3.52229417120831      0.20093807347322     -3.11778121355210
  C           2.18478902295772      0.80508920449395     -2.83160863299259
  O           1.27964933981127     -0.09740387708534     -2.16515296466437
  O           4.88840379942098     -1.09971784504782     -4.61859615209485
  H           3.01169700804435     -0.55158670190298     -5.01643749165173
  H           4.25878808344580      0.27947697117047     -2.33341942369388
  H           1.65774929437326      1.05039545214333     -3.75542186693936
  H           2.29927897604587      1.70774989155431     -2.21748131817202
  H           0.07938758168939      1.42485026227349      1.09974261873114
  H           0.16267404348712      1.49856968386383     -0.60042695145694
  F           2.49373182831349     -2.48950984567630     -1.99767345278648
  F           3.82723253883417     -1.54163603954848     -0.60134519195902
  F           2.12252248203275     -2.61694284039965      0.12043360790258
  C           5.95192884004357     -1.14953938659613     -3.69288240339408
  H           6.73213632929745     -1.74478029501450     -4.16336959667854
  H           5.63987453796462     -1.62410932226248     -2.75860247870742
  H           6.33490591637489     -0.14719328809515     -3.47771553814071
