23
Coordinates from ORCA-job NEB E -43.168106375070
  C           0.32618966149223      0.87664638668126      0.41863291319710
  C          -0.99536204210392      0.57468007454144      0.81160561438556
  C           0.54190022031210      2.11105684648816     -0.43345172414820
  H           1.05043173792127      0.82056374449262      1.22880597638560
  C          -1.27938296931854     -0.06882089258289      2.15568639524689
  C           0.73649682663096     -0.52417805855370     -0.80749020351105
  C          -0.44360892318141     -1.23938904443513     -1.08111117148361
  C          -1.56668253023058     -0.41862875242393     -1.40754929387051
  O          -1.91687165067812      0.40452996317989     -0.09066890832855
  C           1.91521351571959     -1.28613497580388     -0.27751470527904
  H           1.04677424953924      0.14067731420744     -1.61192474080416
  H          -0.64650451648348     -2.13908979864976     -0.51203459775678
  H          -2.50012502100173     -0.93822879587223     -1.59275854223231
  H          -1.37900474005070      0.35791777341340     -2.14789580659086
  H          -0.17889251735125      2.17096522052218     -1.24429898201922
  H           1.55159072778649      2.14849639621296     -0.83605203424942
  H           0.40755986986703      2.98627596893474      0.20132351832745
  F          -1.52477332831022     -1.41479574505137      1.99069795663115
  H          -2.18817549655529      0.35699093092323      2.59367838431242
  H          -0.43773851782038      0.02676045424536      2.84605285813133
  Br          2.45504157248248     -2.65841001115113     -1.58757303980336
  Br          3.46102535574052     -0.11246115006093     -0.03096885219126
  Br          1.56489851559370     -2.17542384925772      1.41480898565080
