23
Coordinates from ORCA-job NEB_product E -43.220076535140
  C           2.65124396968718     -1.88936679340297     -0.24275847776540
  C           1.39331561069700     -2.34769439275453      0.49472232740535
  C           2.28649315223336     -0.59490663439648     -0.97977604940127
  H           3.43599161326325     -1.66660708422403      0.48745053126545
  C           1.53831215472805     -2.27887809436289      2.00747238896539
  C           3.20376848314655     -2.91058942923453     -1.26140795750296
  C           2.19049751534103     -3.29839700240274     -2.30291220237709
  C           2.42083986702675     -3.20547048215031     -3.59920137537867
  O           0.37412375814845     -2.65597567515714     -0.05482429256736
  C           3.76778206971875     -4.17265979612302     -0.61451324114336
  H           4.05548202276317     -2.42678891022750     -1.76219815563398
  H           1.24584134637992     -3.66649391108367     -1.92996705725264
  H           1.67993699898837     -3.49870128979118     -4.32164529045611
  H           3.35478338216124     -2.83733281562077     -3.99346887450543
  H           1.48883949977655     -0.78401883209122     -1.69398383417983
  H           3.15138502012244     -0.20460595849892     -1.51088867289741
  H           1.94750606236851      0.15708102999556     -0.27146595011523
  F           0.36630630855247     -2.56964773523839      2.63625275252055
  H           1.83371607447761     -1.26589808261729      2.30791731974912
  H           2.28973751941049     -2.99662418197065      2.35904367713410
  Br          4.67465772126380     -5.25307285869390     -1.97191474879766
  Br          5.11830174622882     -3.74526152042273      0.74694253597077
  Br          2.41573810351624     -5.29768954953068      0.23102464696367
