17
Coordinates from ORCA-job NEB_reactant E -37.926072002330
  C           2.11184555276512     -0.42447560449782      0.66683095656458
  C           1.23164036441790     -1.40343156401526      0.83246489692530
  I           3.74593405383765     -0.32196779403624     -0.63433390910153
  H           1.98706555177726      0.46407740365314      1.25947941854167
  F           0.25745919799268     -1.16515298737738      1.73814998562919
  C           3.38737648997472     -3.55472808564215      1.61294169798675
  C           3.25533306525812     -3.59841391627615      0.29758671111511
  C           1.98778442284235     -3.29040374806889     -0.43861064907584
  O           1.01125576796698     -2.62155612201757      0.33553261655271
  C           4.66815986424517     -3.85860054968611      2.32770663743238
  H           2.58066582035245     -3.27143692613203      2.27352411395321
  H           4.08611462254804     -3.88588394422403     -0.33090161156815
  H           1.49922974996739     -4.22812162045202     -0.72715992234643
  H           2.20864589128074     -2.73231593322243     -1.35510398752832
  F           5.66684919125182     -4.18787726628947      1.47806231524979
  F           5.09537773204570     -2.76676356954939      3.01650413584544
  H           4.56156266147592     -4.68034777216619      3.05682659382413
