17
Coordinates from ORCA-job NEB_product E -37.948464601520
  C           2.85296952190160     -1.35802398860163      1.36821424194195
  C           1.39448983190826     -1.09242723246404      1.19172281885564
  I           3.77804490995639     -0.18344859891749     -0.21008137388815
  H           3.20194154358759     -0.90612906271789      2.29969145472113
  F           1.08590026143715      0.17096496869449      1.57782034813070
  C           3.17223892067003     -2.85786795379763      1.31263514269265
  C           3.32545531368836     -3.38937598812729     -0.08829476302332
  C           2.35001069329937     -3.97035198116456     -0.75927384264747
  O           0.54876826136462     -1.80657359554570      0.78502948549124
  C           4.43058250167747     -3.15698163230327      2.12946959894059
  H           2.34135584386349     -3.37636827825962      1.80785159737497
  H           4.30423490409561     -3.24892267716451     -0.52674825379914
  H           1.36882097626926     -4.10601741096117     -0.33621386713387
  H           2.49403279832321     -4.31614809957554     -1.76774252227366
  F           5.48163587821307     -2.41866269737029      1.71208977224298
  F           4.23551065363674     -2.83025422419147      3.43174497415358
  H           4.71930718610777     -4.21771154753240      2.08558518822018
