21
Coordinates from ORCA-job NEB E -39.859311555400
  C           0.20737318137460     -0.94975184412075     -0.46132983869495
  C          -1.22699698861151     -0.86448912152508     -0.60143389050281
  H           0.53935545074034     -1.86402177664710      0.02183054631926
  H           0.75864521756162     -0.77268949167479     -1.38081678123940
  C          -1.83528666594661     -0.20468811253494     -1.73585257829824
  C           0.66978506100599      0.24211837179332      0.64716353184231
  C          -0.16629705086416      0.01970436411865      1.79555023712958
  C          -1.58143477639763      0.02707710979870      1.62138263580637
  O          -1.96084206687000     -0.98844327922201      0.47151787664254
  O           2.01599204422902      0.11779089959141      0.92168850479439
  H           0.44225598495870      1.16587572217360      0.09756803198035
  H           0.27858256179548     -0.49469820134059      2.63217748669254
  H          -1.99324734898685      0.94845263268098      1.20621440871613
  H          -2.15940363690613     -0.32202951703285      2.47022709297001
  Br         -1.07981422098050     -0.60360237330075     -3.44144500499934
  Br         -3.73556181627830     -0.35306870537276     -1.76241573539742
  Br         -1.48123138045592      2.03743827825728     -1.51445318656088
  C           2.89392573189367      0.61787504366527     -0.06390770551781
  H           2.57411177003515      1.60227132327964     -0.41961106457107
  H           2.97184467453852     -0.06493616455701     -0.91642922004457
  H           3.86824427416454      0.70381484196977      0.41237465293298
