21
Coordinates from ORCA-job NEB_product E -39.886328509420
  C           3.17065348999494      2.23480480584007     -0.37755793179289
  C           1.80148566869513      1.65612696172192     -0.45060003657904
  H           3.88206896026196      1.40690548125705     -0.32612585843211
  H           3.41623170842479      2.87042355481091     -1.22869062052986
  C           0.89405814116308      2.21937590327226     -1.54668283098442
  C           3.33044859412815      3.08065507727213      0.93197058167542
  C           2.97804784141352      2.24760044607546      2.13154980983323
  C           2.05690109418973      2.59881966553130      3.00827032438015
  O           1.36791005308149      0.81144113372779      0.28207035607075
  O           4.60952397741321      3.66698999616157      0.96774898954676
  H           2.65675951439073      3.94406349670354      0.87168955201477
  H           3.51564040062001      1.31592798552282      2.23800377024369
  H           1.50276493181020      3.51847884578287      2.91332559723288
  H           1.81727029756649      1.97967694748109      3.85510522277897
  Br          1.68357731014293      1.78594773883174     -3.27804043528918
  Br         -0.86070699100725      1.42352581266711     -1.42277866962829
  Br          0.74331524020107      4.15098364532995     -1.37768362844882
  C           5.68733701846643      2.84905025679296      1.36295263829623
  H           6.57849015340474      3.45687783123036      1.21881659312039
  H           5.77119934258872      1.94620696342988      0.74885977312678
  H           5.61232325304996      2.56461745055720      2.41699680336459
