20
Coordinates from ORCA-job NEB_reactant E -33.493553204790
  C           2.25477298065101     -0.46955701594105     -0.15205699577772
  C           1.55802549745775     -1.60218415009499     -0.00024015771810
  Cl          2.82487360578003      0.19156608049449     -1.64314479101927
  H           2.51081354226202      0.13031993982907      0.70340206891346
  N           1.15793412475835     -2.01207801964040      1.27005439294888
  C           4.47535434520274     -2.71153856261625     -2.10157517612483
  C           3.36699674317918     -3.22365614873963     -1.58129124073959
  C           1.99719789868027     -2.82323501439667     -2.03094546708086
  O           1.14679738881644     -2.50029785988420     -0.93153341206144
  O           5.75758287852018     -2.99192810112531     -1.78606309324864
  H           4.44459411883387     -1.98205955856662     -2.89969745783863
  H           3.38646479207369     -3.94557187861228     -0.77914495826877
  H           1.47995081276039     -3.66774564708197     -2.50017650674478
  H           2.04555791207166     -1.99816871998349     -2.74709008367433
  H           0.41831448395866     -2.69844470846129      1.22949668189702
  H           0.97972728416414     -1.27069150367919      1.92911259146344
  C           5.98623980645726     -3.90827271602533     -0.74117668653616
  H           7.06708065033239     -3.97822772737367     -0.63313900616980
  H           5.57780131667452     -4.89455381673065     -0.98322589355511
  H           5.54551981736548     -3.55607487137058      0.19663519133524
