17
Coordinates from ORCA-job NEB_product E -32.786143184120
  C           2.10120904729307      1.81871099459375      1.11353256217922
  C           0.82485705530009      2.49309992638730      0.63787314195663
  I           1.76068120953170     -0.29798573364228      0.69512212725224
  H           2.96639274530079      2.09315675567835      0.50987589873821
  C           0.88894466057261      2.93883280046026     -0.81131590812593
  C           2.34389836171029      2.02411381622569      2.58783967108616
  C           3.47898055552181      1.23907301619212      3.13112825895094
  C           3.40222751693881      0.52697291251180      4.24158557273472
  O          -0.12624335789122      2.64265751769571      1.34873061999191
  I           2.77573974923966      4.16879461987155      2.82597593864625
  H           1.42582644244158      1.85844128558487      3.15311988072435
  H           4.39671799652680      1.28505733846541      2.55879603215417
  H           2.49718378626088      0.47930603441625      4.82481458463542
  H           4.24009398364522     -0.04051328330736      4.60577129613878
  F          -0.31963847975704      3.38173590986596     -1.24837532692515
  H           1.19744080927912      2.11249446260840     -1.46330973779582
  H           1.59998791808583      3.77115162639222     -0.90226461234212
