26
Coordinates from ORCA-job NEB_product E -40.490107737940
  C           1.76266617722967      0.23985159416412      1.42911187147018
  C           2.11653514318075      1.60329017926741      0.83567472121989
  O           1.00708426948261     -0.48109959327525      0.49746598097482
  H           2.71389335832906     -0.28003344715458      1.64164441953158
  O           1.96103832014942      1.63092302104242     -0.47721519521209
  C           1.05597649829381      0.46937650095146      2.79150409641651
  C          -0.36430063320703      0.90484403056625      2.56103628522552
  C          -0.77822120865744      2.14773705525552      2.71355412116124
  O           2.51129054151962      2.53384787875196      1.49077771839207
  O           1.14476931488598     -0.73109159840694      3.53954843871915
  H           1.61331888079033      1.26701204537172      3.30870004918542
  H          -1.03240249117734      0.12051094119695      2.23410908304435
  H          -0.10733096599506      2.92921853012762      3.03126003333762
  H          -1.79626608163679      2.43676985100201      2.51470303622734
  C           1.00142233729383     -1.87547702556005      0.71304131196968
  H           0.60159181650934     -2.12890300371447      1.69793789125757
  H           2.01361983186594     -2.28827946927666      0.62653349625653
  H           0.36903426886186     -2.29545726920454     -0.06665430311414
  C           2.26074190592895      2.86499577744827     -1.11764414678682
  H           3.29289678459770      3.15761762573738     -0.91400862196598
  H           1.59554889969180      3.65038641460044     -0.75382066652091
  H           2.11044984678660      2.69786196271366     -2.18075579453898
  C           0.78588953619270     -0.56577916412061      4.88884263000301
  H           1.43303927286474      0.17158450598942      5.37899838084172
  H           0.91537077151775     -1.53715743121757      5.36207824960735
  H          -0.25585639529882     -0.24194991225589      4.99147691329738
