26
Coordinates from ORCA-job NEB_reactant E -40.469930361750
  C           1.23597790315086      0.00265925487232      0.14497028489162
  C           1.43982286515959      1.31289151874539      0.30640817125988
  O           0.23467259410884     -0.74346697637156      0.74142914455416
  H           1.91979045863696     -0.53688139152877     -0.49722145677247
  O           2.48089267566542      1.86223978704402     -0.38601147481433
  C           1.39791688819439      0.88386575420641      3.44748421881347
  C           0.13431395372106      0.98794156019414      3.06076864559965
  C          -0.30783535302508      1.77545718839331      1.86177924213779
  O           0.74027294920208      2.22666633266598      1.03026640968603
  O           1.90284135207968      0.18597613805863      4.49516538492985
  H           2.20196367596318      1.37794343550090      2.92000763289218
  H          -0.67128953779823      0.49522958220934      3.58110845025357
  H          -0.80898603027428      2.69786376094338      2.18148356639643
  H          -1.01737812953109      1.17589659122550      1.27933720301123
  C           0.69403256961802     -1.97192258592805      1.25453178391050
  H          -0.18393723029007     -2.50181760048752      1.62067665495198
  H           1.40386183686041     -1.82058382584069      2.07558635835008
  H           1.18053556170710     -2.56754634309903      0.47354015484627
  C           2.57333918884113      3.27346964982410     -0.39044515312061
  H           2.73380685276698      3.66591636800587      0.61690021720990
  H           1.67331458527736      3.72973614862862     -0.80979087247274
  H           3.43229085338584      3.50223260066154     -1.01812437932425
  C           0.99278943782441     -0.52786773672059      5.29703822661954
  H           1.58914679174111     -1.02426306880740      6.06060270187301
  H           0.44995170193736     -1.27678551527894      4.71115277318322
  H           0.27279158507696      0.14424937288312      5.77465611113404
