20
Coordinates from ORCA-job NEB_reactant E -48.501791320190
  C           1.58205758632560      0.12519389036057     -0.02436807264574
  C           0.81263883629656     -0.82120209321317      0.52452188273525
  C           2.17430124688699     -0.10150775190869     -1.35207005505061
  H           1.76919889438117      1.04715199115399      0.49781110260065
  F           0.26816590293018     -0.64371370805195      1.73202790118815
  C          -0.13666533274978     -5.33438822878219     -0.07977300868829
  C          -0.43245838178107     -4.07899588944934     -0.36632867024008
  C          -0.24810350885770     -2.94563956962112      0.58895253353421
  O           0.54908951649599     -1.96428943566192     -0.07762733640825
  C          -0.33469225911157     -6.47109528676277     -1.03677621002066
  H           0.24794206043940     -5.63895818400763      0.88274657490280
  H          -0.81301335999506     -3.80447992972883     -1.34009720230412
  H           0.25494147859343     -3.27095548468087      1.50622625551376
  H          -1.22125995676266     -2.50841179655502      0.84834374687098
  Br          3.24825665122383      1.40863181699818     -1.91356464225612
  Br          3.32732834438131     -1.70845080041397     -1.36755315311442
  Br          0.79138953004407     -0.41374060770602     -2.72711534339334
  F          -1.01215963303791     -7.48267917095853     -0.43438415794172
  F          -1.06362732177702     -6.11253221551872     -2.11626838668026
  H           0.62116970607423     -6.88903754549197     -1.39890375860221
