20
Coordinates from ORCA-job NEB_product E -48.506381848150
  C           1.56521372052456     -2.39106858300252     -0.26886314941340
  C           1.20214743234543     -1.44189643377780      0.85742679431790
  C           1.64229221889165     -1.61418748758812     -1.57784806963931
  H           2.57290759437375     -2.78117735388511     -0.06256157043338
  F           1.56515921478152     -1.98506155535060      2.04414853018323
  C           0.56462146684277     -3.57970097289731     -0.12068595064487
  C          -0.88846169848283     -3.16739371390302     -0.16435099220732
  C          -1.56281223739362     -2.79534771381543      0.90710183475642
  O           0.66678540785986     -0.39742874265122      0.81941410849596
  C           0.81479998936618     -4.74814311528200     -1.08518065273895
  H           0.77215051111519     -3.99436651217669      0.87542565098258
  H          -1.37270529619115     -3.22293419109180     -1.12767390441478
  H          -1.11924697143638     -2.75344004679189      1.88912704914387
  H          -2.59814215393138     -2.51352635117518      0.84091992425874
  Br         -0.03706064970779     -0.87202116751503     -2.17582474831097
  Br          2.89765902021917     -0.11279647651694     -1.31241930513214
  Br          2.41756851581229     -2.68040326940317     -3.01598751030764
  F           0.26682027237284     -5.86486366468395     -0.55484856462910
  F           0.21047349592840     -4.56393336333189     -2.27694145064767
  H           1.88043014670955     -4.95770928516032     -1.26977802361918
