17
Coordinates from ORCA-job NEB E -30.758021300740
  C           0.68058708105103      0.40201581331345      0.95089064068122
  C          -0.47801207624273     -0.41200429047404      1.01719721189223
  C           0.51153658647544      1.80765028143870      0.97302782957348
  H           1.56240316450489      0.06223063710642      1.48552927225689
  N          -0.36106311200763     -1.69362355240238      1.50201187008227
  C           1.09913759313136      0.13906911929662     -0.97842796388577
  C          -0.07737990059052      0.54724588755919     -1.60544536876270
  C          -1.23979184558772     -0.20474663381901     -1.34309708075106
  O          -1.52737165475421     -0.11600708428141      0.34626648625232
  Cl          2.54813510327011      1.06516780894058     -1.22992960459026
  H           1.32055090457224     -0.92041307665320     -0.90089759979759
  H          -0.18046366511850      1.58967127716857     -1.86600948735458
  H          -1.15919014664583     -1.28498249066938     -1.40320054781544
  H          -2.17563529608342      0.18168781844594     -1.72055821282199
  N           0.36389684229455      2.94288653374406      0.99865960605082
  H          -1.21864042492239     -2.21841380272000      1.56878892411913
  H           0.33130084665335     -1.88743424599411      2.20519402487102
