17
Coordinates from ORCA-job NEB_product E -30.812673971090
  C           3.05010766269293     -0.89356966454733     -1.43588933998338
  C           1.95361699352905     -1.90868573256661     -1.02396917969657
  C           3.01399897121143      0.29562904030282     -0.62599800985899
  H           4.01739129832871     -1.38888324466624     -1.27857746237171
  N           1.56861406910349     -1.82162411951582      0.26179884174802
  C           2.89161287170051     -0.57061711667670     -2.93050722571066
  C           1.67887249989404      0.25213791492789     -3.20653958780480
  C           0.72080902210192     -0.12883800815255     -4.03059397425558
  O           1.52752766201018     -2.72796086584568     -1.79809063957800
  Cl          4.35084335760214      0.33286406502784     -3.48728871105017
  H           2.86504266972714     -1.50830034710746     -3.49042780882935
  H           1.63430307048389      1.20083124823400     -2.68803091017310
  H           0.76159719443313     -1.07366092388710     -4.54604858166755
  H          -0.14598096179843      0.48304498670794     -4.20961247075167
  N           2.96605825633433      1.22492247650537      0.03917313967050
  H           0.85314070794805     -2.45007898507625      0.59039759783612
  H           1.88754465469750     -1.08931072366412      0.87330432247689
