17
Coordinates from ORCA-job NEB_reactant E -30.791935266790
  C           1.76345859227557     -0.04190297099066     -0.06414591599547
  C           1.62722285615996     -1.29758539274925     -0.55653600286880
  C           1.73672801701720      1.16524927562389     -0.75714743263433
  H           1.90540235719870      0.06188277232872      1.00254399111090
  N           1.62252180862944     -2.38421238029511      0.27872204776589
  C           3.18432706013442     -0.79192124699734     -4.51462176614510
  C           2.66549040263753     -0.33963049771746     -3.38579055664061
  C           1.31383003690300     -0.77143102715892     -2.89550158337482
  O           1.41585711315018     -1.70278026847375     -1.82675631704913
  Cl          4.73291541302104     -0.32408989351330     -5.08101489606752
  H           2.67110829736393     -1.47700131039948     -5.17307199078745
  H           3.21156975468159      0.34746233469659     -2.75693985771069
  H           0.78089948660631     -1.31670852750398     -3.67851759335912
  H           0.72610663192113      0.09911451142257     -2.58893423002387
  N           1.73592932120563      2.19704034246682     -1.26897402134975
  H           1.71159792955936     -3.27973865380435     -0.17163644420399
  H           2.04943492153501     -2.28874706693500      1.18312256933387
