22
Coordinates from ORCA-job NEB E -33.189096532450
  C          -0.20111433512389     -0.81237728437298     -0.86588737137401
  C          -0.03172227944158      0.17952500931172     -1.84070158012995
  O           0.77635653425948     -1.58359856426685     -0.30008840614497
  H          -1.11501853267905     -1.39661784951868     -0.92499062398789
  H          -0.95267647702255      0.40000162232585     -2.40503481500051
  C          -0.63708178938483      0.49205123114843      0.71379862643226
  C          -0.45458820960926      1.79762587164377      0.24006044906317
  C           0.75282726306986      2.17736520942057     -0.30624033591188
  O           0.88964341664900      1.04156296304633     -1.83602761255845
  O          -1.88733420550065      0.13701088232051      1.10808545692618
  H           0.17524842433754      0.03310519671146      1.27381810837597
  H          -1.35314115007073      2.32324161522625     -0.05373387383461
  H           1.67241636170909      1.78536303893937      0.09940175358194
  H           0.84077912342640      3.13924491441430     -0.78263583378848
  C           2.12185383699756     -1.23189813548093     -0.54528338449291
  H           2.71632667556627     -2.05326916640798     -0.14713487713325
  H           2.39677255909551     -0.30252883341405     -0.04076765101998
  H           2.30961754691760     -1.11951309390776     -1.61524234174081
  C          -1.97534068275491     -1.02729414780960      1.90111808990379
  H          -1.50859113311591     -0.86977640792078      2.87928046360005
  H          -3.03662010510369     -1.22745438537822      2.03534754191904
  H          -1.49861284222125     -1.88176968603075      1.41285821731529
