22
Coordinates from ORCA-job NEB_product E -33.220766961770
  C           0.39099303487092     -0.11192715282791      1.58715298855894
  C           1.03519198051107      0.79077970065751      0.55890745580827
  O           1.19916695247555     -1.17445780194818      2.01240194555902
  H          -0.54947333647376     -0.48958037194014      1.13904204831158
  H           0.34586315917013      1.58597227657391      0.20626562959256
  C           0.03952969531570      0.74740068616406      2.84067391981344
  C          -0.90180196839407      1.86259126983208      2.46412913258045
  C          -0.68415160107395      3.13004003678625      2.75898880317509
  O           2.15405633266402      0.70144031450793      0.14377896983505
  O          -0.43985462945070     -0.02841750699010      3.91425760650054
  H           0.97515961167164      1.16048921135744      3.23262863928682
  H          -1.80914788513326      1.56510988273077      1.95462532852985
  H           0.21002835278147      3.44456403188645      3.27032477126372
  H          -1.38672849400107      3.90382063234951      2.49940225920319
  C           1.42513184994452     -2.16603273981103      1.03767996884319
  H           1.98587357434251     -2.95208590578859      1.53873215033042
  H           2.00787984487620     -1.78433730427636      0.19521337780799
  H           0.47726405219472     -2.57551322074268      0.66261968984870
  C          -1.57553464023082     -0.82935539057342      3.68786847560048
  H          -1.36783662981773     -1.63970662809805      2.98181556913277
  H          -1.81653153602554     -1.26395585566853      4.65640377138350
  H          -2.43347772021758     -0.24693816418093      3.33648749903442
