19
Coordinates from ORCA-job NEB E -29.410033862890
  C           1.09406843959159      0.04330881093839     -0.56477814482052
  C           0.47609574601187      1.09269990797742     -1.21299947224756
  C           0.84525893880646     -1.36201733107713     -1.03598624475905
  H           2.08432198989119      0.22207176994386     -0.16321011649571
  Cl          1.20893149594256      2.70154163877389     -0.89859169680965
  C          -0.09408769692973      0.17718867774436      1.18932126776472
  C          -1.34971880274335      0.06272579926196      0.59125643715212
  C          -1.82900625495962      1.08046455955862     -0.23239561201297
  O          -0.70089406817847      1.08954691960198     -1.63464395870480
  N           0.36960877887643     -0.79089206645447      2.04629428113479
  H           0.27654306236528      1.16799926658678      1.42274021662320
  H          -1.77680877581497     -0.92645123919597      0.50116880857210
  H          -1.63032357324001      2.10705216411608      0.04481802341660
  H          -2.76196838526531      0.93024174222495     -0.75280891629342
  H           0.95061226441828     -2.07664712709834     -0.22133895079671
  H           1.57958959424647     -1.62277157550894     -1.79849542101368
  H          -0.14693059106608     -1.44744530741756     -1.46990308139607
  H           0.07579501155247     -1.73525072631564      1.84685353906510
  H           1.32891282649494     -0.71336588366024      2.34269904162148
