19
Coordinates from ORCA-job NEB_product E -29.443351024820
  C           1.63920119633060     -0.26998185192229      2.13057855554587
  C           1.16724470832290      0.73987889569430      1.13349302572280
  C           1.36477487114127     -1.67670730806936      1.60384267522579
  H           2.71324613064658     -0.13916196803969      2.29041568594630
  Cl          1.78239951759249      2.36867520927322      1.48639379556221
  C           0.95908393438072      0.02935482647210      3.50227019558626
  C          -0.54105223957390     -0.04405399679370      3.38868058611144
  C          -1.33485913320294      1.00939126252999      3.41601438382282
  O           0.46131396626859      0.58158606051949      0.19705190544532
  N           1.51388796170944     -0.86995209181248      4.50198687217266
  H           1.24849418357764      1.04642788251679      3.78775375688921
  H          -0.95436754343451     -1.04129849100861      3.30791240807465
  H          -0.94446970393669      2.01025265790905      3.50266618244200
  H          -2.40521527169598      0.91948273912188      3.34308553189110
  H           1.72034624276712     -2.41668502813177      2.31444140833032
  H           1.88854083107071     -1.82367293864319      0.66244604306567
  H           0.30348003120902     -1.82150362617094      1.42277124241148
  H           1.12730207474088     -1.80190939575584      4.39538208921119
  H           1.27884824208606     -0.54422283768894      5.43201365654291
