20
Coordinates from ORCA-job NEB_product E -48.587095491290
  C           2.78476621438739     -1.25781548681336      0.21456417881715
  C           1.49689659983760     -0.80114967689083      0.88485992161704
  O           2.92287930792685     -0.64689704166898     -1.02304060235260
  H           3.67032600718498     -1.01301745671948      0.81141922448705
  C           1.50325705719943     -0.65850623612932      2.40787272282326
  C           2.69635033710802     -2.81690243238725      0.08100646659024
  C           1.58918485171379     -3.23775355429848     -0.82886640861176
  C           0.44949046432027     -3.73876186884236     -0.39051291898677
  O           0.53180303656567     -0.50697143344390      0.23933981644872
  N           4.03809111590659     -3.25782642093210     -0.43186766241581
  H           2.59203480174790     -3.24943022301317      1.07998180492138
  H           1.77566266542892     -3.09680942180040     -1.88370868365341
  H           0.25657490279809     -3.89046869318545      0.65929833102533
  H          -0.33960565109339     -4.01482841601549     -1.06639216838239
  H           2.04617563929142     -0.54142800412412     -1.42296096817116
  Cl          2.47721860169396     -1.86969029593592      3.24887213898698
  Cl          2.24851805860931      0.95532138226293      2.63810165806241
  Cl         -0.14218996538049     -0.66286966625275      3.04762379734776
  O           4.97183363059289     -3.01394971923531      0.28732590061243
  O           4.08173232416080     -3.82004533457426     -1.49001654916585
