20
Coordinates from ORCA-job NEB_reactant E -48.587414010460
  C           1.88200756087316     -0.40361188925293     -0.05710651104393
  C           1.39337319548427     -0.82345491654492      1.11344622959039
  O           1.87834203104219     -1.14287411535966     -1.20530932507210
  H           2.31046808403733      0.58477162819745     -0.11315660418796
  C           1.42907746791263      0.02493044989265      2.35080917173761
  C           2.93065827276407     -4.16480585524537     -0.65018188354051
  C           2.44447904402200     -3.47966269870286      0.37761569473005
  C           1.00940940896588     -3.11723916568278      0.55477006468472
  O           0.82110952447373     -2.02761257480093      1.43077322686970
  N           4.32711378909719     -4.46695688767828     -0.74630448100457
  H           2.35007713925683     -4.53391949785990     -1.48109765572063
  H           3.12300803047411     -3.14945508452418      1.15646252122074
  H           0.48613071651109     -3.94492101887887      1.04860378278637
  H           0.53413310734569     -2.93266704981328     -0.41487583055899
  H           2.34250642194922     -0.66453468785648     -1.89990601836347
  Cl          2.58462668520202     -0.70318772482976      3.50962816664803
  Cl          1.91588104800357      1.69288802128574      2.06517806088486
  Cl         -0.18138020057647      0.03725662683750      3.10958166238352
  O           5.06377857721091     -4.08174097124416      0.13516016656294
  O           4.67890009595057     -5.08930258793895     -1.72559043860678
