15
Coordinates from ORCA-job NEB E -31.092509686360
  C          -1.05985700190609      0.93051927587629      0.46718220747016
  C           0.30616333177237      1.17880260881922      0.58098694790618
  Cl         -1.86273278194731      1.55225762102057     -0.94489620346942
  H          -1.66758658367577      0.97211489371669      1.35990871842232
  O           0.81029869279785      1.15531647805801      1.83692410933693
  C          -0.94821544865809     -1.08989489475169     -0.02765375875795
  C           0.36947660417499     -1.32505441716244     -0.38151565241805
  C           0.96502670587644     -0.41665451142059     -1.28005650883618
  O           1.11548060349943      1.05106952769220     -0.39826324435612
  F          -1.43239752333391     -1.73562353359078      1.04598439973306
  H          -1.72519562093889     -0.94708968477043     -0.76977624593597
  H           0.99676865079010     -1.80603717579602      0.35793857634994
  H           0.35304857525443     -0.05883775928965     -2.09925837436300
  H           2.00314062620333     -0.56282873583761     -1.54244069713105
  H           1.77658117009111      1.10194030743625      1.79493572604915
