15
Coordinates from ORCA-job NEB_reactant E -31.126766531450
  C           1.34410929622443     -0.33717656545771      0.04925811859199
  C           2.26428005279218     -1.26957954514140     -0.21205583303742
  Cl          0.22068833440227      0.16925159797694     -1.15614308988200
  H           1.25728544849080      0.15681882310008      0.99988658543971
  O           3.16145770003385     -1.69933995631696      0.71542867950259
  C           1.54784135028067     -4.34559979797517     -0.43565780107852
  C           2.76006831431015     -4.19295864939523     -0.93126677759650
  C           3.24931206052701     -2.93026707527183     -1.57215255014609
  O           2.36519267359619     -1.83395043250160     -1.42913556573120
  F           1.16322165921800     -5.49952294441709      0.13166383034879
  H           0.75987229474712     -3.60709802722929     -0.42753608380340
  H           3.47067808870699     -5.00438704101552     -0.89206464156685
  H           3.33686609526714     -3.07161039864105     -2.65446026361346
  H           4.23835901796394     -2.67868390210307     -1.17027540847039
  H           3.02506761343926     -1.23739608561110      1.54931080104275
