15
Coordinates from ORCA-job NEB_product E -31.145194988530
  C           1.45767424354076     -1.59675628802577     -0.02801380864119
  C           2.71444218678439     -0.90908475433975      0.54056455726967
  Cl          1.04776512114241     -0.87509351532716     -1.59470607300987
  H           0.61434896627843     -1.42405158529374      0.65083942758610
  O           3.09992490266831     -1.37882726414475      1.72781105964458
  C           1.66160392508147     -3.11244718336482     -0.21887616128028
  C           2.93464463710933     -3.41774571232143     -0.94648400769282
  C           2.97743301985047     -3.69608872793394     -2.23463301200836
  O           3.29067167299624     -0.02664879185350     -0.01323726096007
  F           1.68770070548114     -3.68202669738519      1.05063025140100
  H           0.79049468394673     -3.53837018694356     -0.72867658313350
  H           3.83068095595691     -3.36441497474649     -0.34431517672343
  H           2.08461513631859     -3.74216690323264     -2.83556290862389
  H           3.91008339185528     -3.87431263809157     -2.73932554445844
  H           2.59771645098955     -2.14906477699569      2.03628524063051
