17
Coordinates from ORCA-job NEB_product E -42.236591280420
  C           3.16370456851306     -1.16420025779114     -0.48888919975473
  C           1.66113775013663     -1.13970774759978     -0.33057652467140
  Cl          3.75552253343481      0.52467440293900     -0.47821746278807
  H           3.64398363884017     -1.68319564934520      0.34563003986911
  C           1.13534880248345     -2.32249688645063      0.54245447861292
  C           3.49853566909660     -1.86100574051168     -1.81726905991205
  C           2.93258916707355     -1.16466098141869     -3.00511098531053
  C           2.15244462990481     -1.76520932544301     -3.88472776797061
  O           0.90796747517376     -0.35795344704189     -0.82006995695522
  Br          5.46347789822829     -1.95101611459910     -1.97768802554293
  H           3.17215712861501     -2.90351682110384     -1.77250525555701
  H           3.21407078945985     -0.12758322424208     -3.11398152208940
  H           1.87398366365885     -2.80246951436547     -3.78954856316485
  H           1.76062757610630     -1.23885975349489     -4.73659512472435
  F          -0.18565124639384     -2.33553175337304      0.63757890730890
  F           1.52034307936587     -3.49763848654952      0.01366276904467
  F           1.64365687630282     -2.26962869960906      1.77925325360555
