23
Coordinates from ORCA-job NEB E -43.170292832730
  C           0.07759363886485      0.11432290172330     -0.96533533657555
  C          -1.42239268311478     -0.01496988575885     -0.99315635430937
  F           0.71595308086454     -0.80243279278666     -1.74309959375381
  H           0.36156385776700      1.10578606553712     -1.34101661363120
  C          -2.13470790336327     -1.06761464324827     -1.44228043819998
  C           0.52178023006852     -0.01760397248657      0.54222992376126
  C          -0.30506487235612      0.97283992116661      1.27003795381329
  C          -1.70198888638322      0.83226099016070      1.27739169515223
  O          -2.03589450728455      0.98642660091954     -0.33597127502088
  C           2.02593075317546      0.22222408354994      0.72228898101493
  H           0.27214539995000     -1.04188634705920      0.84388923132576
  H           0.12706344661050      1.94884149360618      1.43303252016936
  H          -2.28478763197216      1.63552727887119      1.71092908876425
  H          -2.12080646019401     -0.15091209311422      1.47444601507099
  Br         -1.46836575617018     -2.55247701635699     -2.36350721344191
  Br         -4.00194714748359     -1.07522410283307     -1.21231080524927
  Br         -3.31547533000183      2.21181374564392     -1.94607307635270
  C           2.87649099659522     -0.98848862807618      0.35700574752201
  H           2.19843240210363      0.46871462302668      1.77231931024284
  H           2.33085650824854      1.08323071000074      0.12413384764275
  H           2.59041338617724     -1.84976099700435      0.95674249736697
  H           3.92422306203709     -0.77234893668588      0.54963995810781
  H           2.76898441586114     -1.24826899879569     -0.69133606341978
