23
Coordinates from ORCA-job NEB_reactant E -43.208430821750
  C           2.42078743235819      0.42636720154476      0.01782007619492
  C           1.73536775251102      1.56152239866615     -0.12322019184496
  F           2.68067165644677     -0.13422625722075      1.20763157464819
  H           2.83079854635809     -0.14644055562690     -0.79796411226687
  C           1.49915956691830      2.14788328827446     -1.48040784541632
  C           4.36553150883952      2.45487436652749      2.05504994843372
  C           3.23064102699188      3.11060833403786      1.87375679282188
  C           1.87322425532475      2.51244600831622      2.08027981761679
  O           1.20188882329265      2.36781077650238      0.81843743023872
  C           5.71800054209173      3.01142294333730      1.75708537062284
  H           4.35027585169384      1.43710044219354      2.42445857509151
  H           3.23405061199878      4.12256945441769      1.49052493902623
  H           1.21768194279062      3.18902108445130      2.63356393607778
  H           1.92874288168459      1.55325203894777      2.60081945807723
  Br          1.51783970979730      0.87165298293784     -2.92918739374023
  Br         -0.20345742986705      3.07153178217331     -1.50443422161556
  Br          2.91407999816015      3.47666296488231     -1.82271433902666
  C           6.35694442556112      2.25791384294310      0.58891124407797
  H           6.35247383121593      2.90621287065600      2.64047925696184
  H           5.64080090732212      4.07115431318547      1.50991492566524
  H           6.42200728163537      1.19460534333497      0.80914711007350
  H           7.35895400099203      2.63377307849320      0.40003892095787
  H           5.76433487588229      2.39128129702451     -0.31369127267563
