15
Coordinates from ORCA-job NEB E -31.008743970800
  C           1.17422600100825      1.03706989359892      0.20846200286383
  C           0.72132561746151      0.90648291006598      1.49912023353661
  F           2.33531363170801      0.39788329204145     -0.13074565509030
  H           1.20083441962642      2.05546005382707     -0.18228912111529
  Br          1.52618848308246      1.84805823505044      3.35545080743089
  C          -0.34983568513106     -1.14664385642433     -1.30535346415753
  C          -0.73985734889247     -0.17123031639720     -0.45860453427312
  C          -1.06935181536825     -0.46097417414638      0.97265357367383
  O          -0.28904827982761      0.31309408172260      1.92099324550206
  C          -0.22811893545263     -0.92952625285159     -2.68497930313900
  H          -0.05417752081221     -2.12588600601098     -0.95435192420588
  H          -1.09901081757065      0.76807258112233     -0.85418340800733
  H          -0.88143788620550     -1.50914564550210      1.22719440885291
  H          -2.11153869331952     -0.21919230437354      1.20373643583547
  N          -0.13551117030676     -0.76352249172269     -3.81710329770713
