15
Coordinates from ORCA-job NEB_reactant E -31.094749292480
  C           1.39048553605696     -0.21380680967556     -0.13323768312174
  C           1.49125131395425     -1.33296326382101      0.57666986645858
  F           0.48643660463644     -0.03435143868084     -1.12227313866969
  H           2.02849247822799      0.64030819609065      0.01421534704591
  Br          2.82824995507472     -1.38824790697342      1.91529821024024
  C          -0.10818067113678     -3.97059838581754     -2.55263378607192
  C           0.37342626145092     -3.02520432363111     -1.74917922418550
  C          -0.19129494353154     -2.72751674458961     -0.39634751715535
  O           0.81774431604858     -2.49020067207894      0.57725285655570
  C           0.42595766844239     -4.21156930142722     -3.83423202173154
  H          -0.94142335974648     -4.59953702340366     -2.26662053940005
  H           1.20831518060813     -2.41505825951602     -2.06690860394245
  H          -0.74728284210391     -3.58440910051060     -0.00709015933356
  H          -0.87147331257978     -1.86732771086858     -0.45844289347448
  N           0.85509581459809     -4.41881725509656     -4.87647071321416
