15
Coordinates from ORCA-job NEB_product E -31.108850617120
  C           1.36658896180627     -1.73359996410506     -0.60581498429531
  C           2.59754011974184     -2.37369030660447      0.00302874392231
  F           1.69248024047783     -0.76897237823285     -1.50856295682863
  H           0.79530674575514     -1.24410694507590      0.19807694961984
  Br          4.26216837037309     -1.65468306637913     -0.64518543188796
  C           0.49284531437704     -2.82935666611682     -1.26519252376911
  C          -0.75553751705634     -2.23100764476864     -1.86277223363294
  C          -1.97179606812844     -2.59534627420901     -1.50791165604794
  O           2.57976209257548     -3.24552706668043      0.80522336964063
  C           1.25544527290297     -3.49472188752145     -2.30469581424287
  H           0.24019465574605     -3.56739327761785     -0.49459833709381
  H          -0.58267785423110     -1.47500671331824     -2.61547540171585
  H          -2.14983824578823     -3.35346147410598     -0.76236312730314
  H          -2.84275847894280     -2.15084675809456     -1.95634939112042
  N           1.85037639039123     -4.01407957716962     -3.12840720524478
