18
Coordinates from ORCA-job NEB_product E -37.405433815460
  C           1.22031003586701     -1.26337103838672     -1.74486596613962
  C           1.39773895323597     -1.28343992133511     -0.23178108777835
  O           0.63599679055608     -0.06679859525597     -2.14068065489035
  H           2.20088309188046     -1.37029725875320     -2.23208180282697
  O           2.05293004190318     -2.34812379425414      0.20811407452588
  C           0.35756794320978     -2.49511595209080     -2.14671299978432
  C          -1.03285068658265     -2.40189563404850     -1.60965798461220
  C          -1.52513322204134     -3.24930741628832     -0.72596530384749
  O           0.96010588440650     -0.41233530784043      0.47035706520321
  N           0.35871355365922     -2.54691683130851     -3.64409508623399
  H           0.87466662499933     -3.39687806340985     -1.80289121280775
  H          -1.61740504119420     -1.57747637151397     -1.99075526911339
  H          -0.94971306599067     -4.07914083296217     -0.34765799383635
  H          -2.52541515583837     -3.14753879230061     -0.34470330951414
  H           0.31153504131870      0.39121170177467     -1.34788416203483
  H           2.14816100222760     -2.32400681058971      1.17477105730783
  O          -0.69494571721625     -2.47174494697424     -4.21389225197305
  O           1.43925392559965     -2.67992413446244     -4.16071711164409
