19
Coordinates from ORCA-job NEB E -39.643433127350
  C           0.73845466009736      1.34470187574016     -1.42117260149087
  C          -0.01944928778857      1.16388219681172     -0.24354524418386
  N           2.05242684693326      1.21309506108101     -1.40627425038235
  H           0.26125159936553      1.64234206493813     -2.34084571744878
  C          -1.38115367692505      1.36185307743787     -0.20848096631731
  C          -1.40213750828313     -1.97304747759922      1.22846080048105
  C          -0.28818091761805     -1.37770310793238      0.83828002489658
  C           0.37756826080798     -0.30563979309428      1.64023339506914
  O           0.72108117870017      0.85228969715122      0.86592132836454
  Br         -2.23491087357904     -3.33893816622351      0.23017394786083
  H          -1.91874617113812     -1.73841648829734      2.14703327344376
  H           0.19449550497004     -1.64499055378692     -0.09219158875307
  H           1.34434159261117     -0.66732938552045      2.00888697419552
  H          -0.23371689475400     -0.01753801038924      2.50235675253459
  H           2.46710482746453      0.82040596209936     -0.56978826318342
  H           2.55915690139846      1.12561604825904     -2.27403438116211
  Br         -2.39538682829657      1.68760843193843     -1.75275361135951
  Br         -2.38666723026581      1.38849441235990      1.37137399702736
  Br          1.54446801629986     -1.53668584497353     -2.52363386959210
