19
Coordinates from ORCA-job NEB_reactant E -39.669289832330
  C           2.15864581269686     -0.33391958058975      0.14185172362552
  C           1.92145767446152      0.62224842885366      1.06398454537796
  N           3.05384183126418     -1.33516102146232      0.30998941873599
  H           1.60103640677437     -0.34570940546976     -0.78331193787095
  C           0.89102464571817      1.66746421291753      0.88161766785324
  C           0.82630549914368     -2.02305296582014      2.90698371851936
  C           1.94329025950164     -1.40303640745890      3.24535160124619
  C           2.02567757915723      0.08542441698580      3.38751351773388
  O           2.64589011456349      0.68028197005912      2.24034036664409
  Br          0.75021424050996     -3.88654738063197      2.62070031790858
  H          -0.12596295483120     -1.53367935967759      2.77465028978896
  H           2.86739415793349     -1.95084577725365      3.36273545108334
  H           2.67920470103593      0.36357374422001      4.21668917837043
  H           1.03137954598766      0.51367178377576      3.55633252716661
  H           3.69902159487908     -1.24480623378178      1.07859111574534
  H           3.36656278258651     -1.84773964004988     -0.49470340846692
  Br          0.77772606066847      2.32883513839234     -0.95070132279270
  Br         -0.97156680723050      0.97704438048118      1.31690131134229
  Br          1.22315685517946      3.17295369651034      2.05248391798878
