16
Coordinates from ORCA-job NEB E -29.724499662380
  C          -0.24818477998375      1.31278706348166      0.04818376522654
  C          -1.34211033986827      0.48008934101598      0.33378390365019
  N           0.03561253567076      1.63240201985736     -1.26064854334562
  H          -0.01358374915679      2.11031078809552      0.74481378774140
  I          -2.03623812448272      0.58191717987969      2.39625419044086
  C           1.13136225840663     -0.11019988499751      0.57777512562143
  C           0.78559747400223     -1.18874688485360     -0.22208763549182
  C          -0.42980280855268     -1.84403617808591      0.00591106651352
  O          -1.61090470747076     -0.55493669132614     -0.31229085899485
  F           2.25121609818445      0.57689277200728      0.25531732316286
  H           0.97085813430667     -0.09618957746837      1.64958942432106
  H           1.24172012965387     -1.24610889609260     -1.20089292042749
  H          -0.73411460523545     -2.02943725803116      1.02861374893204
  H          -0.74786406689322     -2.59925849130455     -0.69600318166639
  H           0.93305136218420      2.06592115497241     -1.41759314484340
  H          -0.18661481076517      0.90859354284993     -1.93072605084033
