16
Coordinates from ORCA-job NEB_reactant E -29.743806526830
  C           1.62961666035718     -0.00558261175230     -0.12770657227229
  C           1.94717251602385     -0.79097058106427      0.90298752959306
  N           1.14340008672452     -0.47930911636600     -1.32972165205827
  H           1.80012244374289      1.05755662699656     -0.07218571163742
  I           2.81852280155732      0.09199591933902      2.64518806870905
  C           4.00523784331279     -3.88783219202477      2.44075215869914
  C           3.95459437335683     -3.01315394516264      1.45334524799748
  C           2.80392229421847     -2.96500803380988      0.49415953624883
  O           1.72984268705892     -2.12797214301903      0.94287558144320
  F           5.02696534812616     -3.92669228598277      3.30213810616562
  H           3.26661838111657     -4.64930294668302      2.64949281283616
  H           4.74129398228627     -2.28192834737573      1.34224176670381
  H           2.34475814623198     -3.95193051835236      0.39878072984747
  H           3.14696500037011     -2.61923802326131     -0.48854915421371
  H           0.55704656606217      0.16111508798412     -1.84104819915969
  H           0.77302086945398     -1.41844688946562     -1.28855024890246
