19
Coordinates from ORCA-job NEB_product E -46.692725423010
  C           1.62930908587767      0.87787086697536      2.11295397055730
  C           1.55878982113029      1.45479882656750      0.71765761063849
  C           1.37693425176046     -0.62811810029426      2.05780569744686
  H           2.66495900645150      1.02724080970640      2.47339114587149
  Br          2.19740697102357      3.30531365727033      0.64050195114955
  C           0.74910700123068      1.67719736410354      3.09782294165293
  C          -0.68816180369934      1.27103413177395      3.21647238751295
  C          -1.66859917974713      1.95163481330797      2.65151229877021
  O           1.20287131394820      0.92504795835237     -0.27276031923239
  N           1.39791739432073      1.67358390955744      4.46950250480628
  H           0.79573268535848      2.73373495832110      2.79774005774156
  H          -0.89492323950185      0.40389564486025      3.82688394230708
  H          -1.49025415282097      2.83291548339983      2.05679319556190
  H          -2.69233833767257      1.64068270068509      2.75252001085833
  Br         -0.31621225117670     -1.12066723168562      1.23221470036278
  Br          2.81588810048567     -1.46683327026203      1.01781393462454
  Br          1.42735817196477     -1.40512078960870      3.85318418089549
  O           0.65765489761897      1.78979383008667      5.40247140850065
  O           2.59926026344755      1.60919443688281      4.50221837997398
