19
Coordinates from ORCA-job NEB_reactant E -46.686143152090
  C           1.54262315742175     -0.12985347462226     -0.10309318576522
  C           0.92329088052847      0.93356039524202      0.42759818371127
  C           1.95924191971629     -1.24873759567528      0.76340553659677
  H           1.74475931594824     -0.18543477271999     -1.15904791760162
  Br          0.39091911057434      2.37832473447146     -0.69149296430946
  C          -0.13343593222759      2.69538595690218      4.74861629532951
  C          -0.13568593956073      1.79405976645387      3.77689876112471
  C           0.05695673995387      2.10780524500343      2.33341814003451
  O           0.67324472018947      0.98514293655409      1.72963198492846
  N          -0.36049283730627      2.30954664824751      6.11718809142851
  H           0.02897627902411      3.75513310015903      4.62258650187540
  H          -0.29579478192668      0.74947187986977      4.01769657572176
  H           0.67492301988349      3.00400004335349      2.19672550795946
  H          -0.92608158006395      2.28633671412589      1.87083196712241
  Br          2.82813103476827     -2.64898263036911     -0.26015999719208
  Br          3.21651261020526     -0.64282577590545      2.16855935079883
  Br          0.41639891941203     -2.04658709761944      1.70816824734580
  O          -0.59246071957986      1.14714945949652      6.35269246671804
  O          -0.30122591696052      3.19660446703230      6.93787645417294
