20
Coordinates from ORCA-job NEB_product E -29.356043044120
  C           1.98017649421879      1.13381084064853     -1.20330383001384
  C           0.77930269344659      0.50733836785700     -1.90054022181786
  H           1.73830782159532      1.30236650163828     -0.15356803873512
  H           2.86373047752622      0.50113312668792     -1.28686219687381
  C           1.12732635257313     -0.46460711895792     -2.99812530250661
  C           2.28151410038229      2.50130667645790     -1.83861735268816
  C           3.34474054810165      3.22814116258566     -1.07397185503064
  C           3.10054945784570      4.22613669409038     -0.24702977368036
  O          -0.34603404485255      0.81319656232270     -1.60199441882214
  F           2.72103210682471      2.29285157802614     -3.13674918074967
  H           1.36223914845890      3.09427639200306     -1.91606141317146
  H           4.34801110273963      2.86184232966882     -1.24081559167008
  H           2.10140674718300      4.59517167928172     -0.08367180040858
  H           3.88769052179037      4.71011075343254      0.30421912209531
  C          -0.10277594484497     -0.99678314740051     -3.71953876510960
  H           1.69701623241210     -1.28531672180906     -2.55337158034904
  H           1.79304052038524      0.05104172096692     -3.69535741885729
  H          -0.76080124255172     -1.50261922671831     -3.01741649764551
  H           0.18565327406750     -1.69623478309004     -4.49982634480544
  H          -0.65662636730189     -0.17696338769171     -4.16939753916009
