20
Coordinates from ORCA-job NEB_reactant E -29.341010936780
  C           1.84376645143500      0.03017373014332     -0.24376143543378
  C           1.72229021266729      0.38662995264157     -1.51583445434006
  H           2.16822777073339      0.69204821894828      0.53779506285930
  H           1.61297992372787     -0.97540236243346      0.05325482663983
  C           1.23976139854845     -0.54500629942539     -2.59472276167079
  C           2.37925855448743      4.04427621687240     -3.20987947836504
  C           2.56078876589745      3.92535630781414     -1.90973260632370
  C           2.37035260488267      2.64674893784317     -1.15957680228503
  O           1.97624124204871      1.62294760437989     -2.03884694621985
  F           2.56280632680236      5.21703277306081     -3.83905397162093
  H           2.07936694719114      3.25662086024480     -3.88225997696506
  H           2.86385613816180      4.77634053175227     -1.31836021784706
  H           1.60712218834218      2.79441011912649     -0.37879914773065
  H           3.31301198113860      2.37755006961483     -0.65677766545742
  C          -0.23468010396519     -0.29017726590632     -2.90860539343518
  H           1.37849863957769     -1.57690458426576     -2.27356201591807
  H           1.83405596265779     -0.37196454333988     -3.49342894378940
  H          -0.84534903598470     -0.47271082575044     -2.02728701023032
  H          -0.57051014223322     -0.94716433745699     -3.70719386187760
  H          -0.37824582611670      0.74089489613627     -3.22176719998917
