21
Coordinates from ORCA-job NEB E -41.218868870940
  C           0.40754237292294     -0.05740327045859      1.37545089201014
  C           0.53107625147487     -1.23729993362178      0.49681613373306
  O          -0.54584153090056      0.78550564761873      1.24112706711472
  H           1.24259155798079      0.12482115120529      2.02414554898188
  C           0.99303558784188     -2.44266650756155      0.90118809449716
  C           0.12382721814993      0.84263139101108     -3.15128478699449
  C          -0.82484038809842      0.53738117891779     -2.25987072588828
  C          -0.90356220001064     -0.80505623491272     -1.56205410330111
  O           0.32148381347199     -1.07062502978763     -0.85378662000401
  H           0.28063018209396      1.89066496754791     -3.41537630780638
  H           0.60173117042289      0.16127373378108     -3.82973901688039
  H          -1.02023850457816      1.35682313066123     -1.58351552984901
  H          -1.00400117016445     -1.63276427891414     -2.25450972268709
  H          -1.73136095390411     -0.78714490928752     -0.84457586975644
  C          -0.34050728498319      2.06944795518780      1.80860070084925
  H          -1.35402381470390      2.40668178721089      2.06330878539232
  H           0.11879293086042      2.77146065075360      1.10334724114310
  H           0.29301974861535      1.98115696041674      2.68830245738758
  Cl          1.03513762225617     -3.74129032328928     -0.22359300391458
  Cl          1.56091810277197     -2.82951707387179      2.45408726295278
  Cl          0.21458928848026     -0.32408099260715      3.82193150301987
