21
Coordinates from ORCA-job NEB_reactant E -41.291188056800
  C           1.08971901104654     -0.05140036705252     -0.14948163591059
  C           0.87955427029810     -1.21545832236424     -0.77718804388244
  O           0.34492104049856      1.06782338929614     -0.34899177619070
  H           1.89657332919703      0.02897373342962      0.56557836362005
  C           1.72446609308476     -2.42562721391212     -0.50790095523831
  C           0.59642825943376     -0.12810959804028     -4.88197149463248
  C           0.68521958815828     -0.13995884806543     -3.56617910573454
  C          -0.44098419727521     -0.51110317888044     -2.64966921638133
  O          -0.06784811726625     -1.51759864560617     -1.71284961100970
  H           1.42710097778487      0.15536248802243     -5.50495933346319
  H          -0.31591055698661     -0.39269602276166     -5.39048644017318
  H           1.61049069380327      0.12135922643718     -3.06998389482331
  H          -1.26550610445135     -0.95932168581373     -3.20787143520151
  H          -0.79999869732110      0.37946406857180     -2.11994692153901
  C           0.83588780191849      2.23241538068670      0.27904552200014
  H           0.10520070736407      3.01410002056758      0.08135672397999
  H           1.80541208379470      2.52649642071907     -0.13469595393232
  H           0.93334379923232      2.08741793851485      1.35894330424395
  Cl          2.77927554108489     -2.72381804689664     -1.92937883795029
  Cl          2.75635960512173     -2.28281991193500      0.91208730533882
  Cl          0.68239487147913     -3.85090082491714     -0.29515656312004
