18
Coordinates from ORCA-job NEB E -30.037386456600
  C          -0.69999453428354     -1.48041141185250     -0.23636629390107
  C          -0.77861697042924     -0.13834104223687     -0.57185512247768
  H          -1.36126453696993     -1.84717782548319      0.52957049091629
  H          -0.46990476975586     -2.17642544261202     -1.02755060962154
  O          -0.29957960024440      0.22206809903939     -1.79431907497157
  C           0.92160001459949     -1.36914268668297      0.93801551591949
  C           0.55212586657821     -0.41278100153630      1.86816833429095
  C           0.25684816615312      0.89428295038685      1.36686414875249
  O          -0.98243344086940      0.76831275277471      0.33602782401757
  Cl          1.15150959267150     -3.00441237891158      1.47450718348611
  H           1.61533135925453     -1.12210725483692      0.14309372564259
  H           0.05090211655573     -0.73812660127152      2.76706431388167
  H           1.02236462076478      1.33540936796732      0.73309950249762
  H          -0.12996526084849      1.60083495515710      2.09110805410622
  C          -0.22791898730592      1.60485063755410     -2.08730658317539
  H          -0.28065649683745      1.69073823488573     -3.17098383011195
  H           0.71670466573493      2.02834829975310     -1.73449307804078
  H          -1.05705180476803      2.14408034790558     -1.62464450121101
