18
Coordinates from ORCA-job NEB_reactant E -30.062370570110
  C           2.61132089828493      0.12618112589068     -0.08145822963438
  C           2.28644726947691      1.41235083152013     -0.00619230904459
  H           3.14871523688539     -0.38642810476249      0.68835116517841
  H           2.30524665778991     -0.43306653729924     -0.94251519512421
  O           1.57958019175407      1.98972137703780     -1.00806643888806
  C           3.15164780360621     -0.16475282793764      3.55236697281657
  C           2.61684838855591      0.90379984146700      2.98837811350798
  C           3.37305875035627      1.82522149208893      2.07498416228541
  O           2.59473828904227      2.28857776898712      0.99564323345807
  Cl          2.28523261191153     -1.18135311405619      4.63091962824955
  H           4.17414644880973     -0.47424899686607      3.39513534271985
  H           1.58747470936974      1.17494693218909      3.17102265266367
  H           4.29422107455673      1.35197538970212      1.71391970927689
  H           3.63489012535772      2.73792379294572      2.62321793525288
  C           1.27409364512746      3.36434797510873     -0.89255749970133
  H           0.71120350506782      3.61117202912094     -1.79054242018962
  H           2.18176872084456      3.97154455140559     -0.84482728745420
  H           0.66586567320286      3.56428647345778     -0.00677953537289
