18
Coordinates from ORCA-job NEB_product E -30.098285371250
  C           2.07062626205630     -0.11348091531566      0.81117147190857
  C           1.61674387815674      1.19366978796784      0.18909650824661
  H           1.21356523732281     -0.58411112209997      1.29371534711991
  H           2.45318260201413     -0.76936534537148      0.02793073784546
  O           2.61784163908669      1.78172442756009     -0.47264852286374
  C           3.17119220636465      0.16966396828995      1.83193238882088
  C           2.70179657154655      1.07392701686702      2.92043593357673
  C           3.32150313064568      2.18835101824544      3.26234241821666
  O           0.51287371228316      1.65541268505737      0.28033491998005
  Cl          3.68377557659185     -1.39380288837938      2.57432933896270
  H           4.05781182719527      0.57304895588372      1.33779673714566
  H           1.80332240436996      0.75526048088754      3.43009231565536
  H           4.22018735152118      2.51382372234230      2.76399633731812
  H           2.95413046899579      2.82158421848643      4.05087407862720
  C           2.32110395587400      3.03662862012489     -1.07266159411070
  H           3.23964766589101      3.37158119609377     -1.54693920759999
  H           1.99652365054180      3.74998431088306     -0.31282634279420
  H           1.52587185954243      2.92419986247707     -1.81187286605527
