26
Coordinates from ORCA-job NEB E -39.861877728470
  C           0.17446047114978     -0.42723504814721     -0.89909435330900
  C          -0.92623511219803      0.44000176644393     -0.83032854120704
  C          -0.03027385875650     -1.86687882000996     -1.32857586724649
  H           1.05196341419637     -0.03862539438849     -1.40987532862912
  C          -0.80245539743776      1.90156324303053     -1.20268679613364
  C           0.67341275157505     -0.52188960373606      0.98197123889452
  C          -0.53150873930817     -0.87449000121318      1.59366764524306
  C          -1.66221539455605     -0.01808502587628      1.43462382228014
  O          -1.97242262656767      0.05516913694227     -0.14556172137727
  C           1.85226798752822     -1.45179538132923      1.08913340470561
  H           0.96209068134415      0.52211660157389      1.04561475459097
  H          -0.72025401164440     -1.91765826360810      1.79625299785540
  H          -1.50775409863734      1.03418838581125      1.66297525717856
  H          -2.59763830889460     -0.38851361133218      1.83701684413458
  F           1.16848729479677     -2.45786612440903     -1.58403755290489
  F          -0.65601905408724     -2.67387350153147     -0.45026575759325
  H          -0.60837113614568     -1.90866214269621     -2.26840229709268
  C           0.31038075201283      2.67339080608943     -0.49025171117514
  H          -1.76342064953302      2.37261254107591     -0.98847280689967
  H          -0.63260062690533      1.96285891031883     -2.28137658613011
  H           0.14487668520746      2.69614851206656      0.58417369384982
  H           0.32568895099642      3.69962095956578     -0.85003589091435
  H           1.28369161140782      2.23132077226042     -0.68752543275181
  H           1.54473963838598     -2.49069081900628      1.01096764891857
  H           2.32628059835638     -1.30760938082858      2.05971068334769
  H           2.59282817771458     -1.24511851706654      0.32038265236553
