19
Coordinates from ORCA-job NEB E -36.041792856920
  C          -0.43096962997428     -0.59499731560403     -1.28477655163033
  C           0.82644614282215     -1.17971051253906     -1.01771470912612
  N          -1.57829323767840     -1.27730855961135     -1.02632967852571
  H          -0.50194469154539      0.12319534228772     -2.09169451141980
  H           1.68800686394722     -0.70832245199530     -1.50963132822322
  C          -0.21991590542222      0.69765363946843      0.46348734683736
  C           0.85432581264325      0.24187983797966      1.23303363577792
  C           0.87810884428187     -1.06271239255859      1.67060797803286
  O           1.00881167493922     -1.95739882248037     -0.05180885042983
  C          -0.20642969930584      2.07993211339673     -0.06623137081814
  H          -1.20765841455061      0.36800191308340      0.76980015529271
  H           1.79681280007202      0.77125479537133      1.15477103081679
  H          -0.04315343794491     -1.57386067931734      1.89879422917401
  H           1.75702077116147     -1.45063385456688      2.15467523166876
  H          -2.46319775741125     -0.80539432978251     -1.10850735973476
  H          -1.50798568615221     -2.00519137941287     -0.33146425130164
  Br         -0.17778789796234      3.41781449734158      1.43451678451876
  Br          1.34393328289915      2.44643942187051     -1.18921281550431
  Br         -1.81612983481888      2.46935873706894     -1.10231496540530
