18
Coordinates from ORCA-job NEB E -34.229071365790
  C           0.71632394667838      0.24325306843584     -0.93927859317763
  C          -0.46477339004198      0.86883186011764     -0.47807072059691
  C           0.58810814360080     -0.71349024797474     -1.98825575412372
  H           1.60316237218760      0.86537468900076     -1.03664596103703
  C          -0.38631086351424      2.21763218812284      0.20392139716481
  C           1.05638074909034     -0.91044731872748      0.55233075467103
  C          -0.11747436095299     -1.66801359307379      0.63000898169438
  C          -1.31817334339541     -0.98591279622164      0.92329070392436
  O          -1.52645504653969      0.16711586814666     -0.28516180870767
  Br          2.69306709041473     -1.82136444397895      0.14884680092498
  H           1.24553599782588     -0.14242262839190      1.29503301303060
  H          -0.16728192541401     -2.59161712538948      0.07198992535519
  H          -1.31359457955010     -0.30720077775211      1.77150722928903
  H          -2.23443077609316     -1.55442797877948      0.84011260445689
  N           0.48085587987735     -1.47248597638616     -2.83624893990868
  F           0.85602834671199      2.77600869062152      0.08956862840227
  H          -0.60370249177741      2.11600877208219      1.27700627594064
  H          -1.10726574910809      2.91315775014827     -0.23995453730254
