19
Coordinates from ORCA-job P E -25.410066175680
  C          -1.27169634813455      0.49917629324131     -2.32310819172332
  C          -0.38709542051351     -1.69675085623701     -0.50041224838914
  C          -1.19960404872647     -1.91456610391502     -1.73730621633710
  C          -1.60145963634326     -0.94853470904339     -2.54364726113690
  C          -0.92756186294808      0.73532372382902     -0.85080797294403
  C           0.13106077798844     -0.26305970826023     -0.37788378321246
  H          -1.45619298412017     -2.94419435801401     -1.94609866282683
  H          -2.18495128715741     -1.16851498407824     -3.42637461295932
  N          -2.41742191133986      1.32634864345334     -2.68338326145162
  H          -0.99406043578922     -1.94295801684305      0.37536915200753
  H          -0.37725410489331      0.73501803479874     -2.93712381271961
  H           0.47384742441833     -2.36901864371800     -0.50798166511037
  H          -1.83452187148608      0.60779410209740     -0.25968477364907
  H           0.36838993597019     -0.05577376402254      0.68110038157485
  H          -0.56886395526536      1.75940845553948     -0.70980687670239
  O           1.32086967778936     -0.17395378308262     -1.13795206696125
  H          -2.68316285169881      1.15965738757077     -3.64787404531163
  H          -2.18845168081406      2.31002623457650     -2.58805218312594
  H           1.60758058306383      0.74546205210756     -1.15789189902136
