19
Coordinates from ORCA-job R E -25.336736197760
  C          -1.42183110571571      0.04272406466707     -2.99851585439818
  C           0.02163622571530     -2.25372172767151     -1.63687957404897
  C          -1.29555046863746     -2.09714987077045     -1.75652812410898
  C          -1.99526281271897     -1.01215495568095     -2.39904247984695
  C          -0.73326952902095      1.40649143709484     -0.03533863965197
  C          -0.12082123067717      0.39852614272734      0.56050935611996
  H          -1.94219641672936     -2.85582094440491     -1.33146169398196
  H          -3.07644433532481     -1.06697957658072     -2.38467899000904
  N          -2.10893952724988      1.05999389835850     -3.59477394808357
  H           0.44109609948864     -3.10541758032699     -1.13093181481191
  H          -0.34841839061784      0.14521349472649     -3.04384170773605
  H           0.72885096692105     -1.54506073033194     -2.03077096783376
  H          -1.80194097180283      1.48883955891803     -0.02809188706007
  H          -0.64761514657568     -0.38692531745206      1.08028194784559
  H          -0.18658254545703      2.17813699543214     -0.55334498138639
  O           1.21658074189749      0.20347254763218      0.61023892293995
  H          -3.11163085992337      1.04523011534074     -3.59911059134089
  H          -1.63448796932003      1.82264146372184     -4.03484904152235
  H           1.66337727574863      0.91053098460036      0.12696006891555
