21
Coordinates from ORCA-job NEB E -29.593961039540
  C           0.57314741055839      0.20557041496886     -0.59921632897108
  C          -0.55339291891650      0.52910039465004     -1.36874023362449
  C           0.68992900960258     -1.18115724615835     -0.00962885662722
  H           1.52141587332082      0.60270361876395     -0.95286511684936
  H          -0.48348278880201      1.36797173227185     -2.07135766423850
  C           0.11538013647047      1.32213338024546      0.91100942399956
  C          -1.15483716256297      0.85743867068275      1.29499431469071
  C          -2.21180421192600      1.02885394128159      0.37099147639315
  O          -1.72984455254196      0.17430264436585     -0.96979043828498
  C           1.20759534270217      1.13642582743772      1.80335482269264
  H           0.16629028490538      2.28614520078754      0.40960603874003
  H          -1.20881284739960      0.04576001035231      2.00575715854574
  H          -2.32864178092523      2.01378872871923     -0.07202867017966
  H          -3.15802895022929      0.56094124280732      0.60925958681424
  C           1.24653762870622     -2.13655002406305     -1.06329331550539
  H          -0.29683587528036     -1.52562799670341      0.30311889629199
  H           1.35282765599772     -1.17457129373296      0.85753760163083
  H           0.57682601333296     -2.18873461048360     -1.91857498555730
  H           1.35259009926086     -3.13324475794966     -0.64254620712210
  H           2.22335933417243     -1.80340753688714     -1.40742354455988
  N           2.09978229955391      1.01215765864371      2.50983604172106
