23
Coordinates from ORCA-job NEB_product E -45.180533801510
  C           2.04935106454429      1.59858179543288     -1.09050703702771
  C           0.80878573121652      1.23318202735532     -1.86397316381615
  C           1.85993988358728      1.20179680348643      0.38387672530650
  H           2.91769397530404      1.05012539981220     -1.46672214848341
  C           1.00889532063914      0.67793104358070     -3.29832634967733
  C           2.33107025098332      3.12709054673568     -1.21299553512705
  C           3.56793424464374      3.45760105684495     -0.42860227832561
  C           3.58664717612892      4.27110158359578      0.60922310603583
  O          -0.30631394607747      1.32827312500661     -1.43330534716707
  C           2.51916571392233      3.54648785938832     -2.67031261677458
  H           1.47509110318787      3.66022087022593     -0.78856146038856
  H           4.47577025810478      2.98789171405071     -0.78321726320111
  H           2.68909109845749      4.73692018368371      0.98091879527689
  H           4.49791293970762      4.49717024386965      1.13503521971453
  F           3.06405921391771      0.98826601816097      0.96487139312071
  F           1.25232026169547      2.16037386677912      1.10734329098132
  H           1.26973277604964      0.27801969670047      0.49786894382013
  F           0.49635003787734      1.53201920024265     -4.20975093648712
  F           2.30892968095114      0.49882439726890     -3.61744990385739
  H           0.48821423694702     -0.28758161673232     -3.40843397894970
  H           3.28021669129002      2.93958987477616     -3.15587103985475
  H           2.84047418904144      4.58500207548032     -2.70214821734163
  H           1.59106809788034      3.46611223425485     -3.22976019777674
