23
Coordinates from ORCA-job NEB_reactant E -45.177306393110
  C           2.15497140783098      0.42919911447643     -0.74463680754270
  C           1.12946632098014      1.16824551173683     -1.18860026126902
  C           3.11542412914232      0.67185824276521      0.37536497911803
  H           2.30116956466844     -0.51685818887805     -1.24171630105878
  C           0.30284668127555      0.58146592910064     -2.32745398891242
  C           2.73889140107900      3.81581955569638     -2.08652139734302
  C           2.45061225721444      3.97184134356279     -0.80635198874173
  C           1.32302946558418      3.30534452719161     -0.07263658298254
  O           0.61199451758118      2.35437189223078     -0.85800919028604
  C           3.87236521588270      4.49094158949167     -2.77905515097856
  H           2.14384492283583      3.16187054711995     -2.71110053282502
  H           3.04492998084682      4.62231933258652     -0.18091863193796
  H           0.56071385575542      4.04976706597049      0.18500166061875
  H           1.68164955197067      2.86533493671813      0.86099168754573
  F           3.91455848468163      1.75609744016989      0.18797271938352
  F           2.48014004636229      0.89295194909424      1.56308759315246
  H           3.77704429825535     -0.19387605847139      0.52476130420276
  F           0.99814906259101      0.63363671011276     -3.49080712616936
  F           0.02001767048109     -0.72306061138126     -2.12188358912943
  H          -0.63955741898577      1.13018899427260     -2.46558149594360
  H           4.55323134057072      3.74548697407972     -3.18782775445403
  H           4.42158222130177      5.13279703109710     -2.09571317484923
  H           3.50092502209424      5.08915617125697     -3.61036596959782
