21
Coordinates from ORCA-job NEB_product E -54.014514989740
  C           2.22507401069451     -1.68564004974012      1.37629903427876
  C           0.74797769971428     -1.54502966007091      1.84369358638947
  C           2.29284950927758     -1.05643313333072     -0.01534657721936
  H           2.90649573049798     -1.11225180304782      2.01413942298204
  O           0.46001097668304     -0.43601470929370      2.51068265500050
  C           2.62254104348801     -3.17665994366985      1.36251968937457
  C           3.70373480166057     -3.50332703657428      0.36663402182429
  C           3.50177194023226     -4.28232196836428     -0.67816594634648
  O          -0.07224895508757     -2.36834564297485      1.58209759171968
  C           3.06915713271301     -3.59993591163214      2.76594223983148
  H           1.71952649321426     -3.74983714305343      1.11368308704842
  H           4.66985526612834     -3.05946047832240      0.55671894799553
  H           2.54102302676108     -4.72449853040845     -0.88250183362577
  H           4.29092529772670     -4.49813570056186     -1.37620355724809
  F           3.54671370412555     -0.90049979543546     -0.45626422511488
  F           1.62947878403958     -1.74021247100435     -0.94200214487515
  F           1.76559693792790      0.18374026334318      0.01485871487240
  H           1.19053386629105      0.18946855764573      2.61190782181711
  Cl          3.40371804246281     -5.34024685497427      2.78188717008592
  Cl          4.54845120060181     -2.73726635938309      3.26032726558375
  Cl          1.80811349084727     -3.24729162914693      3.97909303562579
