21
Coordinates from ORCA-job NEB_reactant E -53.999578425690
  C           1.78320288974665     -0.03679470041694     -0.06370629217490
  C           2.66086826849006     -0.91352712047902      0.45354062501081
  C           0.78140409142663     -0.45648156196446     -1.07395448813995
  H           1.76610533413658      0.99814529390565      0.22256651927764
  O           3.58940793010322     -0.57765102602267      1.36938772666929
  C           3.01541630438479     -4.75725657742610      2.42468188476155
  C           3.13802158425048     -3.49843592578898      2.03570058435657
  C           3.56857456345424     -3.09834740835191      0.65775142259194
  O           2.65759377174535     -2.18398345012140      0.05947135590642
  C           2.62058109151005     -5.20551626414471      3.78522020065853
  H           3.22000876473870     -5.57614804528251      1.74893358540047
  H           2.92794913106741     -2.68267154552715      2.71209592045703
  H           3.58168654660567     -3.95497395125404     -0.01786171895386
  H           4.56883644536295     -2.64975818728534      0.70675264449336
  F           0.00280446667875      0.57195798273541     -1.44418101180633
  F           1.32944703360201     -0.93849464094424     -2.20810094180965
  F          -0.05219426272926     -1.42154817580650     -0.63838692801111
  H           3.54259131064813      0.36267225542998      1.57699407434498
  Cl          1.18939180931905     -6.27045289984680      3.66404067853128
  Cl          3.96248981554881     -6.15596919983721      4.49643368506564
  Cl          2.23671310990975     -3.88306485157104      4.89142047337028
