23
Coordinates from ORCA-job NEB_product E -57.284792686750
  C           1.29379298741027     -1.56428318292872      0.89612818162539
  C           1.97765893784080     -0.40948014232061      1.61271445741605
  C           2.04908248097099     -2.03186075623441     -0.34974718624787
  H           0.37694047939086     -1.10444438544933      0.49917495425438
  C           3.42532621173557     -0.58325794618377      2.17548870565258
  C           0.80201210813316     -2.60131118273693      1.96502399882438
  C          -0.66034434102457     -2.87466834168211      1.72120434610521
  C          -1.61838106916159     -2.52833417952693      2.55807498704150
  O           1.42167905977192      0.62563679002268      1.83070630454549
  C           1.54146199050697     -3.93869243071204      2.08174774317633
  H           0.90723579883515     -2.12015534986404      2.94479586458840
  H          -0.87632991817472     -3.39930545849806      0.80219496825888
  H          -1.41222431002075     -2.00635582006768      3.47839788060395
  H          -2.65129692484481     -2.75094414737752      2.35604428972429
  Cl          0.97687243200576     -2.99429022250112     -1.38516513562684
  Cl          2.48095089685901     -0.53074091568572     -1.25934880273669
  Cl          3.54597647530681     -2.92960532893015     -0.08000134229258
  F           3.63742991086495      0.31452993365557      3.13760446754882
  F           3.63924445742084     -1.78809686694277      2.72248917177861
  F           4.35793478493963     -0.39310767774715      1.24156824117605
  F           1.35084605495008     -4.72639246717613      0.98002787705126
  H           1.11670565663087     -4.48821893456317      2.92940155983738
  H           2.61772583965279     -3.82512098654990      2.21877446769502
