16
Coordinates from ORCA-job NEB E -30.466217548290
  C          -0.39326479503326      1.21321056053422     -0.48957155949191
  C          -1.41473330614686      0.45323664996504      0.09405855911712
  N          -0.04341801550902      0.99898991625189     -1.80099257878299
  H          -0.28026360997874      2.23763174788061     -0.15403684856675
  F          -1.90974531270433      1.00160506498404      1.26507126123656
  C           1.05618251356518      0.24683371428748      0.67419568371430
  C           0.84874348101415     -1.08923116537324      0.36669804730996
  C          -0.32512663427532     -1.70900022501382      0.80745775369513
  O          -1.58544168952856     -0.77066071759786     -0.06580491537806
  Cl          2.49014752804639      1.02581681264708      0.07350274299349
  H           0.73930824428785      0.65635725117736      1.62390362820320
  H           1.37835391184787     -1.50952019788126     -0.47674213549698
  H          -0.69344729811983     -1.48153316180878      1.79822516686948
  H          -0.54223014440521     -2.70862508852507      0.46572090560712
  H           0.84623283833165      1.39143972824582     -2.07408280303497
  H          -0.17129771139198      0.04344911022649     -2.10760290799471
