16
Coordinates from ORCA-job NEB_reactant E -30.486344266610
  C           1.66855420764899     -0.05601860766714     -0.25947267912790
  C           2.16077838637887     -0.31671885428910      0.94995375863103
  N           0.83997698654821     -0.91800948461610     -0.96004845155982
  H           1.95848254609861      0.85280528207235     -0.76160957208983
  F           3.07015266552364      0.54715198589048      1.49516528568599
  C           4.03063378732704     -2.33072899950223      4.10008542231124
  C           3.94293295196281     -1.90682828492122      2.85076055421859
  C           2.85469030954871     -2.36372227990161      1.92631546696837
  O           1.83743739404712     -1.36824018383881      1.73237734830236
  Cl          5.25705602803964     -1.80784564756421      5.17889201626829
  H           3.35047960488484     -3.04886452822279      4.53321940574463
  H           4.63475577238561     -1.17242187182885      2.46562308793521
  H           2.32001599134915     -3.21541058400271      2.35182894682902
  H           3.27799313981515     -2.64001821243793      0.95203410140054
  H           0.14721976335008     -0.46059337433384     -1.53333321513418
  H           0.44724046509153     -1.64873635483631     -0.38249147638353
