16
Coordinates from ORCA-job NEB_product E -30.500240252010
  C           2.88576548290415     -0.30423762999835      0.96744949082827
  C           1.40866366919145     -0.19311219017857      1.27891105241578
  N           3.13672133059504     -0.70002880151504     -0.39621860287782
  H           3.35057405091668      0.67294627727686      1.15012382381207
  F           1.19484943275950      0.32621187185842      2.52180865130241
  C           3.49757818998067     -1.31111197000835      1.97434348370988
  C           2.97890722467493     -2.69767517908159      1.78606802381217
  C           2.24005552300447     -3.32220759887250      2.68439824736190
  O           0.49001808445141     -0.49662228523691      0.60467368764438
  Cl          5.27454216260435     -1.31632256723036      1.74834410707543
  H           3.31476007444786     -0.95811269050913      2.99272378410746
  H           3.26088455816689     -3.17507762111739      0.85896781493296
  H           1.96492050912259     -2.85909561299141      3.61794783484860
  H           1.87638507223477     -4.32115615545260      2.51951639109606
  H           2.92969941106142      0.05362451522925     -1.03991665493600
  H           2.56107522388383     -1.49542236217231     -0.65034113513356
