20
Coordinates from ORCA-job NEB E -29.323179464920
  C           1.13608751240596     -0.27879075830088     -0.49609966503552
  C           0.60546999240488      0.12061799986679     -1.70893618609054
  C           0.94049466876080     -1.70084073926883     -0.05387467745454
  H           2.09242827851545      0.15721650945933     -0.22903895599577
  F           1.14085671433620      1.28771716057900     -2.23158818760068
  C          -0.18267776064165      0.79707420925304      0.63855177219813
  C          -1.39212044647439      0.33255741419859      0.14834296933857
  C          -1.73480728221147      0.60589987300124     -1.20025555096950
  O          -0.55879678489296     -0.16578095461008     -2.11356991456536
  C           0.21732526626724      0.54079046523210      2.06261109345817
  H           0.16952789563931      1.75149853111685      0.25986148951745
  H          -1.85641226321424     -0.51497898694061      0.63268032639730
  H          -1.58060723775792      1.62144127034600     -1.55135678978319
  H          -2.63783050077364      0.15451591151959     -1.58888035709500
  H           1.04991702832040     -1.79761227003025      1.02202610074267
  H           1.69900503788686     -2.32634376397390     -0.52467671918710
  H          -0.03811489964616     -2.06355210443739     -0.35577051691535
  H          -0.17514414682630     -0.40771798823927      2.41982392396608
  H          -0.19249278511706      1.33410732963683      2.68784891275774
  H           1.29789171301868      0.55218089159184      2.18230093231642
