20
Coordinates from ORCA-job NEB_reactant E -29.348416297620
  C           1.82345636105972      0.03307846726705      0.03293725771374
  C           1.06067668849797      1.03784470323614      0.43633536675663
  C           2.27634373585497     -1.07064054850976      0.93052280692282
  H           2.13044217596945      0.01321774260863     -0.99966750221529
  F           0.69498463073119      2.00338256007155     -0.44529043331254
  C          -0.45528382705287      3.33419818831980      4.22838027148228
  C          -0.60653758902075      2.33401192592341      3.37716891678843
  C          -0.18312198354691      2.37770211339833      1.94411316452758
  O           0.58708816604684      1.20796752755029      1.67942530643765
  C          -0.89619289737424      3.30797020208781      5.65190179907850
  H           0.00378059864034      4.25813754153170      3.89932604641744
  H          -1.05505363427623      1.40093566690541      3.68733048197435
  H           0.41011382957342      3.27712759047589      1.73767738870185
  H          -1.06786595373592      2.38742459707582      1.28975441627456
  H           1.90613415112376     -0.90969587716789      1.93829474132901
  H           3.36454239164488     -1.11614562645358      0.95334874629548
  H           1.91040149581661     -2.02969390515073      0.56533408885280
  H          -1.34002193113388      2.34933701463927      5.90652876615095
  H          -1.62708155078707      4.09564352432824      5.83285601222917
  H          -0.04710485803125      3.49089659186262      6.30952235759460
