20
Coordinates from ORCA-job NEB_product E -29.371896407550
  C           1.37823746649958      1.15019556199056      1.94889629805549
  C           1.00880568216864      1.33728572039036      0.51248282251185
  C           1.11408263148008     -0.29450511519476      2.36053130098616
  H           2.44594536112285      1.38046420503461      2.04573958636339
  F           1.47699566014501      2.54001002359885      0.04454136499340
  C           0.60005363079483      2.21097072990160      2.78056191739080
  C          -0.88089570823896      1.97686188434659      2.68841606271215
  C          -1.69009921903814      2.67680437716728      1.91675668374803
  O           0.40303580863690      0.64320922042692     -0.22244713075286
  C           1.05779142446611      2.21676343835333      4.23767467653177
  H           0.82879873701251      3.18929062334197      2.34366613761502
  H          -1.26861692619439      1.18063538285912      3.30897469242844
  H          -1.32879978697287      3.47806464363589      1.29237832958855
  H          -2.74713338058836      2.47918058899929      1.87062646455552
  H           0.06875413841290     -0.54731794111190      2.20760123066433
  H           1.37333727974614     -0.45092181292457      3.40308888660190
  H           1.71466604531738     -0.96691602463171      1.75233066266579
  H           0.79530260462615      1.28748715644594      4.73627311226827
  H           0.57048636354151      3.03266923061856      4.76634551602693
  H           2.13415218706213      2.35806810675205      4.30386138504508
