17
Coordinates from ORCA-job NEB_product E -37.962357649280
  C           1.82660781080327     -0.07532291975758     -2.02700087282321
  C           1.81944069163735     -1.16942203756801     -0.98425848122950
  F           3.09852452393508      0.10211691600520     -2.50029526026297
  H           1.50273978035518      0.87319039633676     -1.57834654628252
  N           2.89379065213856     -2.22158240407091     -1.25968155195920
  C           0.89031791573411     -0.49425895103217     -3.19295421786047
  C          -0.47468966606740     -0.89434200599058     -2.69040026470285
  C          -0.97356365753940     -2.10342530975432     -2.85724204128428
  O           1.04840998760678     -1.31525369587947     -0.09602731967473
  C           0.75107004113589      0.62341269849068     -4.10542429785516
  H           1.36450343260031     -1.32814866445339     -3.72573468723062
  H          -1.02977216720399     -0.11534489155358     -2.18710706690577
  H          -0.42612159550916     -2.88410547499427     -3.35990935026132
  H          -1.95244069759335     -2.36066539437362     -2.49327596954933
  O           2.71855602681164     -2.82793988699370     -2.28747523370618
  O           3.76345704508908     -2.35891829223750     -0.45095746007988
  N           0.60896987606604      1.50750991782648     -4.81260937833202
