17
Coordinates from ORCA-job NEB_reactant E -37.957131748950
  C           1.40467392120763     -0.62211435879557      0.38255789526527
  C           1.59057492475428     -1.19574932747159     -0.80947582414819
  F           2.28948459041697      0.13298156243906      1.00074065028727
  H           0.49033727125454     -0.75869642916166      0.94773967109893
  N           2.82796370368232     -1.05194454107914     -1.59728584745910
  C           0.32542111056878     -1.29097134104404     -4.66028929173753
  C           0.31337072116174     -0.77505451496201     -3.43327213940696
  C          -0.28980042974242     -1.47263409366131     -2.25465559752335
  O           0.68087274090719     -2.02995922882275     -1.35113848505467
  C           0.88301171664974     -0.60774031723712     -5.76004480203667
  H          -0.09640003593063     -2.26347122111123     -4.87693446665123
  H           0.75496954715336      0.19663434995199     -3.24966084745841
  H          -0.87189502350242     -2.34071694482579     -2.56780954928517
  H          -0.93219208454170     -0.77664497191706     -1.69704914989083
  O           2.85843085386489     -1.66285175427924     -2.63892485509024
  O           3.69939181502954     -0.34494407667354     -1.15667933529782
  N           1.32598465706620     -0.05692279134904     -6.66181802561129
