14
Coordinates from ORCA-job NEB E -26.372933928700
  C           1.03018473271773      1.02796073334659      0.28693073699754
  C           0.71098483922496      0.15915535574783      1.31679805640434
  H           1.84526108114844      0.72123859867782     -0.35113668134186
  H           0.97157524061906      2.08897037374614      0.47358655568789
  Cl         -0.20285915613765      0.83003126114640      2.67182265584489
  C          -0.41706390545972      0.58527804477599     -1.04646806834889
  C          -1.05982015889454     -0.54846561708335     -0.56403951719705
  C          -0.23638305286459     -1.63188425256769     -0.18376973141795
  O           0.63385015598807     -1.09593647808696      1.16302071118499
  Br         -1.45385821893169      2.17134563009689     -1.27699715851844
  H           0.29870930474476      0.48984089766956     -1.85105306424598
  H          -1.99492850819912     -0.41886292000265     -0.03507806186620
  H           0.59491291196948     -1.87440767572843     -0.83763987087152
  H          -0.72056526592519     -2.50426395173813      0.23402343768824
