14
Coordinates from ORCA-job NEB_reactant E -26.407614465460
  C           2.06349747820287     -0.07972348883757     -0.05809390670896
  C           1.26191256100362     -1.10036569915568     -0.31609057298703
  H           2.85975858881592      0.15834402947028     -0.73800321185656
  H           1.95522865597978      0.51062317501752      0.83000946567976
  Cl         -0.04547483809699     -1.48533346320354      0.78067748139369
  C          -0.85106652171492     -1.62292728804555     -3.93556833900992
  C          -0.57545045053038     -1.57182595562150     -2.64558187258178
  C           0.32382938249521     -2.55707964829985     -1.96154692455018
  O           1.44412802766502     -1.92256308450159     -1.36100176995644
  Br         -1.99368173443232     -0.38271211536140     -4.78354712281087
  H          -0.46860494851520     -2.37643091020878     -4.60583776662735
  H          -0.98075797808521     -0.79008495165359     -2.01812396465505
  H           0.75440116986528     -3.26170260616344     -2.67577127176608
  H          -0.24611939265268     -3.10951799343532     -1.20262022356323
