20
Coordinates from ORCA-job NEB E -45.582123901320
  C           0.07694438723237      1.31961879939827      1.21839238232391
  C           0.71089906086672      1.90565852881760      0.12508995974635
  C           1.46041309873196     -0.21802207970479     -3.38928720853729
  H          -0.25101777691429      2.01328014544243      1.97544017285250
  F           1.07926817839585      0.98541413688193     -0.87043997032551
  C          -0.28666066589672     -0.11891344640278      1.39179710455891
  C          -1.46196613923820     -0.39719319875573      0.48239129903317
  C          -2.69125110557522     -0.60279934805213      0.91352612951256
  O           0.99385823893989      3.05683663178092     -0.08870049887949
  C           0.85832574466617     -1.12113939077024      1.13742347365587
  H          -0.60077201108785     -0.25972036467421      2.43038306150271
  H          -1.23063835113662     -0.38815167962723     -0.57257590480209
  H          -2.93772321939905     -0.60374184961544      1.96293904806550
  H          -3.50493455217823     -0.78265808629780      0.23194556523945
  Cl         -0.02537195898518     -0.98288413544229     -3.23537757616944
  Cl          1.52462537999488      1.37560448752768     -3.92124008012022
  Cl          2.82854838305088     -0.93775676528467     -2.73837140168978
  F           0.94306642580219     -1.52422101203834     -0.16959360024017
  H           0.68630802626478     -2.03359562246251      1.71777722084760
  H           1.82807885646565     -0.68561575072070      1.39848082342550
