20
Coordinates from ORCA-job NEB_reactant E -45.689296100930
  C           1.75904037900862     -0.13141708275341      0.10301057700577
  C           0.81212193356887     -0.93298260294717      0.59945810721830
  C           2.25701310710298     -0.20711879787758     -1.28802843884344
  H           2.17595055938588      0.62021736873296      0.74949731732748
  F           0.25249016370850     -1.89392458211666     -0.14651385116023
  C           0.37979350582546     -3.60924200399210      3.88348482661930
  C           0.28037529083239     -3.09868898313727      2.66807893803535
  C          -0.49950439967671     -1.86027549892583      2.34820903136386
  O           0.34267322465958     -0.82201577669211      1.83011762832281
  C           1.14622677104377     -4.84626679856982      4.22070703217188
  H          -0.11386387158979     -3.15335937567347      4.73052298023514
  H           0.78525302795852     -3.56948013075409      1.83557080952680
  H          -0.93678947434851     -1.42631801247951      3.24900148178485
  H          -1.29499464691050     -2.08820622066724      1.62828789755728
  Cl          0.94580084839636      0.08188248749201     -2.47733952269803
  Cl          3.51091541350971      1.01323103517543     -1.55130121898924
  Cl          2.96287160159781     -1.81454254588600     -1.65147714561902
  F           1.75033380524505     -5.39622932184444      3.12223259245746
  H           0.48251788334061     -5.61440875350521      4.63794371569583
  H           1.94067487734142     -4.62495440357851      4.94483724198784
