20
Coordinates from ORCA-job NEB_product E -45.698207488880
  C           1.42743093152906     -1.41103937192975      1.42863436408694
  C           2.65560012960555     -0.92446228744370      2.16714034017568
  C           1.73959679011093     -1.69221588160583     -0.04424304239708
  H           0.73463589987938     -0.55936788520299      1.42542462683798
  F           3.59614228495886     -1.88888001693091      2.30619917226638
  C           0.73071255698091     -2.52856246994347      2.26896432261015
  C          -0.75222900298766     -2.54746728120900      1.98416209586888
  C          -1.60088789261440     -1.68760838431946      2.51366752744351
  O           2.83156182750381      0.13107967991033      2.65750990967829
  C           1.31453266686255     -3.93874826317574      2.15324758511476
  H           0.87348023042181     -2.22270845549857      3.31320930217959
  H          -1.09072943943568     -3.31746945510545      1.30833873600562
  H          -1.28257929852183     -0.91085899135101      3.19079403147759
  H          -2.65240649729484     -1.72486202425071      2.29141536144956
  Cl          0.26383789250511     -2.12981221215654     -0.92154635516588
  Cl          2.35506592404257     -0.15039817852717     -0.74646274789423
  Cl          2.97531268137858     -2.92373915352388     -0.33128664400391
  F           0.93853952305467     -4.55170780552064      0.98779519358446
  H           0.91398449949128     -4.55669885433137      2.96458212004048
  H           2.40649829252934     -3.94787270788413      2.18535410064122
