22
Coordinates from ORCA-job NEB_reactant E -48.242028523760
  C           1.36968383073627     -0.05084970470855     -0.19931102325222
  C           1.44625452137337     -1.37656417814208     -0.37150516641391
  C           1.92903588760288      1.04436562886468     -1.04119127246902
  H           0.82635191257795      0.29835296745914      0.66804897197898
  N           0.76666716366953     -2.20720669564412      0.68003058924543
  C           2.84125709456013     -3.10974585742439     -4.46179132498674
  C           3.10105805282442     -2.95269752872122     -3.17455108100339
  C           2.71859711574699     -1.73869227282417     -2.38841457054647
  O           1.97861487404593     -2.19138615865374     -1.24676762185377
  C           3.23062223204299     -4.30298914251969     -5.26185291324402
  H           2.32576512882578     -2.32909969304554     -5.00726926832335
  H           3.60716637295787     -3.72031255379102     -2.60786801595392
  H           2.10396532774004     -1.06556359093604     -2.99261647638680
  H           3.61560008327420     -1.20960461421500     -2.04391392379584
  F           3.26824808200608      0.98457316507882     -1.18641278945230
  F           1.42850909028498      1.07114927824623     -2.29379079504087
  F           1.66242585044930      2.23736267562903     -0.50633277553392
  O           0.85908578478789     -3.39563488419629      0.55677128187122
  O           0.18843575592240     -1.61934642535665      1.55711340318774
  H           3.73496592113407     -5.04160261767909     -4.64525817043699
  H           3.89188334870553     -4.00760096126356     -6.07562095171402
  H           2.34610656873140     -4.75640683615673     -5.70709610587581
