22
Coordinates from ORCA-job NEB_product E -48.248297371500
  C           2.00815288418516     -1.60809054557638     -1.45730743825735
  C           0.67605081191868     -2.22723050752121     -1.17666819305442
  C           1.89898180682767     -0.08571537248411     -1.33895204134752
  H           2.74454404094676     -1.95050762344837     -0.72083290965796
  N           0.77498826480424     -3.48046862554888     -0.25115066895553
  C           2.46259660047154     -2.02660841242932     -2.88854964104865
  C           3.81224834373220     -1.43956169923113     -3.18206084798566
  C           4.03972933082408     -0.57523566537539     -4.15236868140241
  O          -0.39778219247878     -1.94042936590123     -1.57551448363618
  C           2.51658100477541     -3.55154950815828     -2.99230461395041
  H           1.73002478734645     -1.63719955248158     -3.60275754202603
  H           4.61459270294302     -1.78901928785065     -2.54702640342592
  H           3.24891697620035     -0.21410346390350     -4.78903106292990
  H           5.02535262039136     -0.19156292603892     -4.34793967385030
  F           3.10329512823507      0.49025061073510     -1.26195137233704
  F           1.26012157947289      0.47796025860636     -2.36329788942216
  F           1.24206985689117      0.26685177264932     -0.22349607203534
  O          -0.24226045369155     -4.09918020221090     -0.12720221738332
  O           1.84829983613964     -3.71397433598282      0.24691266413188
  H           1.52122514148521     -3.98717113073108     -2.92494902378432
  H           3.14003263658834     -3.97251410122963     -2.20627721725803
  H           2.94193829199110     -3.83084031588741     -3.95277467038345
