26
Coordinates from ORCA-job NEB_reactant E -35.488179659500
  C           1.90878269308155     -0.15942976877585     -0.03223508397356
  C           1.51987473274002     -1.14706258559429     -0.83053331245929
  C           1.83779366665576      1.29920794004625     -0.35954183473843
  H           2.31596954735546     -0.40626728264509      0.93772615645695
  C           1.58554071789891     -2.60295136836195     -0.45459625086733
  C           3.57676093553671     -2.51243767308975     -3.71016304425272
  C           2.30154568575009     -2.18305591418229     -3.60360319474374
  C           1.84041799296373     -0.82532884441176     -3.15679519796389
  O           0.94062943358300     -0.87823890615604     -2.06750737156375
  Cl          4.10349797282413     -4.06778409381299     -4.22491661193646
  H           4.38767902304434     -1.83334131960025     -3.49398748722997
  H           1.51948545800912     -2.89563726408550     -3.82237020150658
  H           1.26826404658806     -0.35723284251462     -3.96564105497250
  H           2.70532655102295     -0.19293697132721     -2.91672752348146
  C           3.22761713270690      1.93577763746890     -0.37163608047593
  H           1.22692478453478      1.80009077267497      0.39680467636805
  H           1.35286030424211      1.43458274485046     -1.32702097488217
  H           3.70873682001874      1.81755665231071      0.59686265324444
  H           3.15684613283079      2.99778584441772     -0.59470396123790
  H           3.85817143214173      1.46669238907030     -1.12442898902206
  C           0.18046304542443     -3.19497208484797     -0.34551674678838
  H           2.11297916409413     -2.70864842494612      0.49370471945754
  H           2.14353541751602     -3.14572566902048     -1.22215673272677
  H          -0.36953857971964     -2.71326239905388      0.45932710921851
  H           0.23105725382968     -4.26270107253172     -0.14592916586991
  H          -0.36252136467350     -3.03527949588154     -1.27361449405272
