17
Coordinates from ORCA-job NEB_product E -37.292587865690
  C           3.31157202408568      0.33956223958831      1.56737438020205
  C           1.85915595038785      0.66527420693655      1.40667411544919
  Br          3.82520360946951     -0.79907240308308      0.05562030095436
  H           3.91832295972582      1.24709699951973      1.49664908657454
  I           1.29723071397637      2.39747165013738      2.59882117499394
  C           3.54642617953502     -0.33706528993114      2.93378368542819
  C           2.94578441824444     -1.71442804651750      2.98789737570987
  C           1.84016075589294     -1.99601328911176      3.64937666121040
  O           1.04494482743785      0.11129241935083      0.76517672496411
  C           5.03889190533191     -0.37666760453405      3.28386762198652
  H           3.08262924148372      0.30156845261273      3.69681596223581
  H           3.47086182552671     -2.47058317715164      2.42155013222683
  H           1.30243596711440     -1.25130087907162      4.21459710493743
  H           1.42515152299044     -2.98803084949610      3.65147149863957
  F           5.75951092628466     -1.10061173572965      2.40720405848362
  F           5.55554531277337      0.87612770839827      3.26308034383951
  H           5.20507185973932     -0.79672040191727      4.28803977216407
