17
Coordinates from ORCA-job NEB_product E -38.204407538540
  C           1.76665436160808      1.00092026273717      1.28680802856676
  C           1.24357695757586      1.17977425499560     -0.13811888788022
  C           1.37094923065569     -0.39200059167959      1.77427905796229
  H           2.86405934550635      1.00094784862091      1.21865253200111
  H           1.35126438210077      0.27158984113128     -0.75577584750660
  C           1.29702486183709      2.14959442188666      2.18912806870031
  C          -0.07192527857337      1.96244657005776      2.75271486374494
  C          -1.10487464618438      2.68558261106457      2.36246798462229
  O           0.78563986783613      2.19445967587152     -0.56280695338116
  Br          2.59085742933479      2.41478354360839      3.66486486954195
  H           1.34499523204713      3.07005633295254      1.60039819100825
  H          -0.17345794882386      1.20391203582928      3.51652207200265
  H          -1.01188304757194      3.44788160512196      1.60655995379012
  H          -2.08530622046355      2.53066566602629      2.77635388039740
  F           1.65411299324411     -0.60678235120917      3.05761590998506
  F           0.06282134783895     -0.64028719488474      1.61620932801819
  F           2.01839113203215     -1.33524453213042      1.07092694842668
