17
Coordinates from ORCA-job NEB_reactant E -38.203251251430
  C           1.76594342258482      0.03223775767783     -0.03629518350820
  C           1.12218728660801      1.13048125067006      0.36061677083312
  C           1.94043126293630     -1.14288502022364      0.86682701033647
  H           2.19152713503256     -0.05541806400502     -1.01806153876247
  H           1.00685793517692      1.96959238856005     -0.31871510460701
  C          -0.13143938964091      3.54457267148580      4.08771586178171
  C          -0.37368908890539      2.48097458560069      3.34336998224249
  C          -0.12238025876381      2.43832549685360      1.86886767301425
  O           0.60721903756701      1.25528880472288      1.58529609229279
  Br         -0.48756002729627      3.59307706008866      5.93718180485718
  H           0.26311478380974      4.47389070450483      3.70689562823108
  H          -0.75765105483265      1.56612195565172      3.76957972943166
  H           0.43387651310616      3.32499379196833      1.53806586862572
  H          -1.08558058938701      2.40659616327878      1.33599749761041
  F           2.67415143708629     -0.86645782504081      1.96134808024709
  F           0.77479655236469     -1.63903746737613      1.32092784470592
  F           2.56319504255355     -2.15535425441764      0.24378198266780
