16
Coordinates from ORCA-job NEB E -36.558170985110
  C          -1.11425777110067     -0.17616590992632     -0.86972356164330
  C          -0.56556487430098     -1.12642674841643     -1.75020438713411
  I          -2.00492421238696      1.56034130564201     -1.69510440727698
  H          -1.75269921373092     -0.56493591068797     -0.08539679275541
  Cl         -0.53406815051142     -1.02815441612420     -3.43671384099063
  C           0.20386723503034      0.66908976553995      1.34850827840447
  C           0.40708388012374      0.00127294308874      0.14659600778968
  C           0.62569739967743     -1.50976078805047      0.12422216905667
  O           0.32848834396844     -1.94512855576773     -1.20331955214764
  N           0.57422374157422      2.00556113964659      1.48374610133587
  H          -0.33784226054679      0.26113031487346      2.18570763240447
  H           1.07961565259171      0.54829194893704     -0.51698225433524
  H          -0.04033397805753     -2.00340355919032      0.84030374843542
  H           1.65941533682991     -1.79299393685490      0.33004357578843
  O           1.13233223866995      2.55693116911144      0.54347149363388
  O           0.33896663216952      2.54435123817910      2.55484578943443
