16
Coordinates from ORCA-job NEB_product E -36.605492644370
  C           2.45638595881635      0.93713556277815      1.40783015585147
  C           1.57124105546644      2.12968359613928      1.16425758956038
  I           1.38349878584404     -0.76694480393480      0.62451971421959
  H           3.37812970874106      1.00695294482784      0.83049148096406
  Cl          1.69088427395840      2.72590536900223     -0.47309259760577
  C           2.72589096816234      0.73976485232657      2.89236433653089
  C           3.63295818757541     -0.42576987524071      3.16600161032138
  C           3.39940798483793     -1.32001772331830      4.10778912336667
  O           0.84255320222139      2.62285439226860      1.95973605462624
  N           3.42157155954624      1.96769127691145      3.41436740789621
  H           1.79600681577874      0.64847978710903      3.46308198373338
  H           4.51686225920113     -0.47717795556021      2.54470437205276
  H           2.52685339764252     -1.27148806438983      4.73723130032641
  H           4.07410159960118     -2.13917390176669      4.28187137266308
  O           3.92648207929832      2.69715959373223      2.59783439726445
  O           3.44227216330851      2.10464494911517      4.60511169822881
