23
Coordinates from ORCA-job NEB_reactant E -28.274350962990
  C           1.50783525628225     -0.24695004746467      0.36882176171245
  C           1.05402649844490     -1.35995073550408      0.93520017662242
  C           2.37348100351083     -0.03428827248077     -0.83786079810764
  H           1.19181790539481      0.66648733207039      0.85337027361631
  H           0.43754263763825     -1.27673831822060      1.82322138957664
  C           4.00823975406470     -2.89413389791121      0.76485926730632
  C           3.35771231591963     -3.14307046283133     -0.35882025940292
  C           1.85995285787121     -3.12466629908626     -0.49590267151909
  O           1.16545171677140     -2.68333029375190      0.64908811100263
  C           5.49183916376448     -2.89672130179341      0.96255055051083
  H           3.44128660188357     -2.64960026756415      1.65446685636460
  H           3.87191227730515     -3.40048603421326     -1.27369284651689
  H           1.50666949230340     -4.15287719951620     -0.65170556392640
  H           1.56828548170195     -2.53646432862886     -1.37530598600795
  H           3.10704224654700     -0.82604969055514     -0.96318875421787
  H           2.90650007926180      0.90914723669777     -0.73409418978219
  H           1.76930003992127      0.03024076724276     -1.74488702665657
  C           6.30949254783121     -3.23191506489443     -0.27769953212801
  H           5.72582071176518     -3.61337172217849      1.75644056740336
  H           5.78503438473613     -1.90959060790777      1.33507958359848
  H           6.05996042392478     -4.22407983982084     -0.64619188949728
  H           7.37057664019782     -3.21265007773477     -0.03926005912013
  H           6.12451996295829     -2.50834087395278     -1.06828896083110
