23
Coordinates from ORCA-job NEB_product E -28.281287474060
  C           2.83728848998233     -1.06900522787583      0.41868256023533
  C           1.45760150818025     -1.00536796229198      1.02250995763928
  C           2.81103975057477     -0.48805531015107     -0.99194270069310
  H           3.47606194827534     -0.45289546153838      1.06418498053841
  H           1.41997938024655     -1.38697939159086      2.06518438894015
  C           3.34590997178290     -2.53412543941066      0.52044855551365
  C           2.98538872145202     -3.32330155831864     -0.70348478931387
  C           1.99473092478098     -4.19347718189416     -0.74939779351899
  O           0.46900088086604     -0.59953496653766      0.48217090322043
  C           4.84971974462500     -2.62775327804625      0.83679282107271
  H           2.82900501001469     -2.99579480774331      1.37214932710015
  H           3.59258033468717     -3.14939559851273     -1.57987403544265
  H           1.36780006880584     -4.38783336665300      0.10595312223874
  H           1.76075155095990     -4.74535311016156     -1.64379410708991
  H           2.09087952356010     -1.02863697412756     -1.60085209400445
  H           3.78517623053127     -0.53815645584184     -1.46627518851819
  H           2.49679649109233      0.55250387608503     -0.94705426913374
  C           5.78460182291436     -1.91929343515987     -0.13574835101963
  H           5.11108503824702     -3.68858190843761      0.86891012240985
  H           5.01481645249151     -2.22091033688603      1.83799687220265
  H           5.64989600440787     -2.28296958102013     -1.15079495782894
  H           6.81690459463953     -2.10742668319980      0.15209151954817
  H           5.62478555688224     -0.84435584068608     -0.12275684409605
