23
Coordinates from ORCA-job R E -36.680039968090
  C          -1.30663562685908     -0.33623027788738     -2.80610035905058
  C          -0.43253862771647     -2.98140438816453     -1.63479947273469
  C          -1.68372446896477     -2.55855216690193     -1.79643208422370
  C          -2.10145033694812     -1.24272506591763     -2.22920050236502
  C          -1.03724277067119      1.63860649075037     -0.01539176226282
  C          -0.14291352705220      0.66968072720436     -0.02125516830306
  H          -2.49742032477122     -3.23761414110127     -1.57315397549151
  H          -3.14069420219645     -0.98610648931898     -2.08179483266204
  O          -1.76544519352873      0.88901423565938     -3.16048240632812
  H          -0.21800403944662     -3.98549494382281     -1.31209656788906
  H          -0.26405259117403     -0.54004335455286     -3.01727110381202
  H           0.41943237153635     -2.34986434256412     -1.81835706290253
  H          -2.06069959451902      1.45227419036588      0.25478114090390
  H          -0.38385951826764     -0.35281759846063      0.22743529345197
  H          -0.78064624079876      2.64971284777525     -0.28502219144074
  C           1.29521193160071      0.87060914300450     -0.39303795545741
  C          -0.83450462517093      1.72522815881724     -3.80914403807155
  H          -1.34409366133592      2.66926828260898     -3.99337418526021
  H          -0.51343765104518      1.29474490508927     -4.76334911162186
  H           0.04561996765729      1.90542384773364     -3.18526809328536
  F           1.69421306681678     -0.05590298692658     -1.30660327831802
  F           1.52204983778068      2.07544050796974     -0.97182550253418
  H           1.97739582507451      0.78467241864012      0.47058321965863
