19
Coordinates from ORCA-job NEB E -29.562809694450
  C           1.08219448299361     -0.51468472300415     -0.18099032703938
  C           0.62433574977012     -0.76496653638903     -1.48067001797574
  C           0.65681466955089     -1.43779876718162      0.92989870385936
  H           2.10673599509786     -0.17551726989399     -0.07477753158777
  H           1.20555983674609     -0.35303167678182     -2.31739356113843
  C           0.02593067030011      1.12098244223122      0.22836127914438
  C          -1.27662860267392      0.62313926664231      0.01519758751168
  C          -1.67953575485725      0.24204390329311     -1.25751614870301
  O          -0.57350269521395     -1.12635054625807     -1.69481815675058
  N           0.45088144249982      1.47741132503755      1.50180713249871
  H           0.46430429451998      1.72242671690961     -0.56020120110875
  H          -1.78532424206555      0.19833477250983      0.87021753579270
  H          -1.38601605355623      0.84985275185184     -2.10177784698593
  H          -2.63593899908277     -0.24337289154732     -1.37229859329335
  F           1.62604715542916     -2.40411468491345      1.11080113258874
  H          -0.26877958096917     -1.95995633123733      0.67252858392044
  H           0.56975535769507     -0.92060098457685      1.89039073700472
  H          -0.22412589610640      1.36289201958615      2.23971285779178
  H           1.01729216992254      2.30331121372200      1.58152783447042
