22
Coordinates from ORCA-job NEB_product E -32.126794021040
  C           2.25478483385758     -0.66785367041483     -2.30852436375178
  C           0.92412472187625     -1.41682213393574     -2.36652822083171
  Br          2.13257324944090      0.43423198521554     -0.69260817428624
  H           3.09313110429872     -1.34601551953908     -2.13869221555529
  C           0.93244000402713     -2.73212832854093     -1.62947629233722
  C           2.48522674396537      0.19288247372659     -3.55341354450732
  C           3.61468343540706      1.16640300985944     -3.35875551463351
  C           3.50060341031885      2.47236627664131     -3.50633542268632
  O          -0.03235424724333     -0.95706218617578     -2.92642141876768
  N           2.72654937732849     -0.75013375831635     -4.64180677526950
  H           1.55471700851552      0.72796576527993     -3.77222732623474
  H           4.56881376424187      0.71569410373544     -3.11069502989341
  H           2.55728506214183      2.93339978672285     -3.74921020664207
  H           4.33896863819583      3.13548730297157     -3.37896422316049
  C          -0.45501839766501     -3.35289267785136     -1.54691516507390
  H           1.34422441706200     -2.57031330676364     -0.62948546297094
  H           1.61757243813756     -3.39716852390152     -2.16395963630825
  H          -1.12775950346550     -2.69551516849420     -1.00211163532474
  H          -0.41284479375912     -4.31247229228766     -1.03849047490537
  H          -0.85910033730346     -3.49847276127586     -2.54529554108882
  H           3.67724535029251     -1.10465290056277     -4.59871622789850
  H           2.60303372032895     -0.29792747609296     -5.53906712787219
