22
Coordinates from ORCA-job NEB_reactant E -32.120985267580
  C           1.98335244728495     -0.15593298606592     -0.12939159207059
  C           1.54590272566890     -0.54355075438658     -1.32278194308025
  Br          2.08040484176695      1.65873992663279      0.40714220032722
  H           2.30777738012592     -0.84405102412516      0.63141441665308
  C           1.43445119233391     -2.00352792519110     -1.68036949416336
  C           2.62982061824231     -0.28418951872277     -5.09797158087772
  C           2.93470561854545      0.08150735120678     -3.85351605218344
  C           2.08389772867630      1.01005253220270     -3.04824341657868
  O           1.08682262818040      0.32491771056793     -2.27512590476270
  N           3.30110814957689     -1.23511069518821     -5.83414708178162
  H           1.75750054786719      0.12592097287780     -5.58880713992053
  H           3.79691022165597     -0.34355501107914     -3.35667627866437
  H           1.49668722388394      1.66489740378290     -3.69518168226676
  H           2.71015170624364      1.62339856645587     -2.38983005748088
  C          -0.03553625609622     -2.40741119238703     -1.78876152963773
  H           1.94195664652719     -2.61269247514289     -0.93160615696211
  H           1.91727727734924     -2.15330536444846     -2.64940748017808
  H          -0.52770499866772     -2.31107094807377     -0.82376699158704
  H          -0.12039745688919     -3.43805234092536     -2.12411802419568
  H          -0.54211988893875     -1.76183380268678     -2.50139664213959
  H           4.21092995822995     -1.49160959302141     -5.48127631752277
  H           3.26550168843276     -1.13474083228220     -6.83548125092639
