20
Coordinates from ORCA-job NEB E -44.737607298500
  C           0.17361164512608      0.92820908416784     -0.47226190246177
  C           0.36778171202234      1.53917027919750      0.77796739757709
  C           1.18941027006258      1.01015601499927     -1.58018132923958
  H          -0.83258956014344      1.07806368484702     -0.85856807338091
  I           2.34919928998826      1.75568418126079      1.58898510962680
  C          -0.13079069941049     -0.92753680532503      0.15506073081564
  C          -1.14995151853122     -0.74449230113843      1.09572632302143
  C          -0.89562179834533      0.01685257529219      2.25255830760120
  O          -0.56426722049559      1.55310604875070      1.62627265866583
  C          -0.45172562630153     -1.75220487393294     -1.06647980278206
  H           0.87519216328662     -1.10600563710000      0.52039662607352
  H          -2.17076752081457     -0.82244233914818      0.74852329507073
  H           0.04194624969624     -0.15041004945813      2.77502877394854
  H          -1.72550882658127      0.23071865621583      2.91171070493507
  Cl          2.57102683176733     -0.08696861506455     -1.36657844523789
  Cl          0.42804783013269      0.63511344768611     -3.15274968216880
  Cl          1.82294712369366      2.68163198156034     -1.71349670444261
  F          -1.64381428177418     -1.36419068802200     -1.62137827949084
  H          -0.56563916791065     -2.80450684844448     -0.77752876113584
  H           0.31151310453249     -1.66994779634386     -1.84300694699554
