20
Coordinates from ORCA-job NEB_reactant E -44.766267013860
  C           1.60565305409926     -0.85474234016804     -0.34576784307000
  C           2.30086205109738     -1.25653168714739      0.71999980020070
  C           2.07299562803571      0.08448828427081     -1.39029411629761
  H           0.60213687135612     -1.22361181127811     -0.49556012719291
  I           4.26205391680270     -0.64743798997999      1.16663239673126
  C           0.28066069250075     -5.07442353991692      1.04877105001324
  C           0.56664344451437     -3.83222300297738      0.69650841990668
  C           0.62920189551488     -2.69141388423476      1.66552845529614
  O           1.91679492078882     -2.07782991705513      1.69398446195832
  C           0.20972122165819     -6.22425080909216      0.09795449016659
  H           0.06208774341125     -5.33651428867105      2.07457562353743
  H           0.79333835043656     -3.60281030637151     -0.33503742580646
  H           0.47966254367275     -3.04922852559522      2.68702570513433
  H          -0.13530091812836     -1.93795210799763      1.43554741416640
  Cl          3.51965996104366     -0.53116556042036     -2.24582087948026
  Cl          0.79109160008909      0.31939084569039     -2.60007551557125
  Cl          2.47759319829427      1.69308969855164     -0.71361442355681
  F           0.44885606015938     -5.83961038209640     -1.19413378307023
  H          -0.78669819211886     -6.68372001413625      0.11484896803725
  H           0.96098595677208     -6.98350266137452      0.34992732889719
