20
Coordinates from ORCA-job NEB E -48.964471323450
  C          -0.00436652531802     -0.51035703979932      0.73012883708203
  C           1.50969296338463     -1.92187390378699     -0.21657078692311
  C           0.50826698889231      0.56771891861654      1.61130070347315
  H          -0.41439362808172     -1.28205255219925      1.37783600130934
  C           2.59742999155678     -1.09017517578886      0.23121908545004
  C          -0.72989395687606     -0.18032080844817     -0.52334863165728
  C          -1.44099958053964      1.12223235276995     -0.69814217173685
  C          -2.70847338267260      1.19063448343957     -1.05905459462275
  O           1.27248920172600     -3.04243371534957      0.13023874463453
  N           0.48452197434402     -0.21188491310360     -1.35723716939373
  H          -1.37387568195785     -1.00354495740466     -0.84115685472114
  H          -0.85739399563367      2.01058718830294     -0.51850323896401
  H          -3.30954648643598      0.31233487352943     -1.23313142231861
  H          -3.20431555323012      2.13831740322486     -1.17026548508693
  Cl          1.42319788438491      1.86853522233493      0.83691385485904
  Cl         -0.93544657197192      1.33949531973162      2.44682543921632
  Cl          1.49945120138642     -0.13556697459439      2.91962432751056
  N           3.52804991117459     -0.48631340538875      0.51007391000695
  O           1.04418485711397     -1.44167072959028     -1.49797509982749
  O           1.11142038875407      0.75633841350398     -1.67877544829003
