20
Coordinates from ORCA-job NEB_product E -49.031284477830
  C           1.15555940086794      0.15263489043688     -1.88061196232105
  C           1.85122164532859     -1.20661224861994     -2.17011886361130
  C           1.91399667197590      1.07373277804358     -0.92973138922100
  H           0.21077536081954     -0.10422722481655     -1.38493153951178
  C           3.24098075232707     -1.35312359841780     -1.77397418625764
  C           0.78892707761515      0.77416517315250     -3.24643220916432
  C           0.15612793670184      2.13089678237481     -3.21925515336792
  C          -1.14690455626487      2.31673610889077     -3.31713374864050
  O           1.21678278160832     -2.11978948849261     -2.62445019495590
  N           2.00315207431145      0.79057019470733     -4.11903460871482
  H           0.11001114102031      0.05784072483937     -3.73183297207840
  H           0.83893222274110      2.96358953462903     -3.14527406935580
  H          -1.83927367535274      1.49550665845359     -3.40590894907298
  H          -1.57415218328473      3.30285957438711     -3.29907231466307
  Cl          0.84705641939723      2.38537790551765     -0.35548450378895
  Cl          2.40424685929351      0.14194861472484      0.51792175441499
  Cl          3.35527428893462      1.79518508287431     -1.68443065374169
  N           4.33715097137898     -1.55492316679123     -1.51853487295529
  O           2.74989060344283     -0.15692584644043     -4.00756506194408
  O           2.12664420713797      1.69365755054677     -4.89394450104851
