17
Coordinates from ORCA-job NEB E -29.812123144410
  C           0.49249475743059     -0.89409960383131     -0.17715994143162
  C          -0.80167937802658     -0.47361537455377     -0.68265277485681
  O           0.45724102318055     -1.44411767135254      1.11654641940726
  H           1.02382505663861     -1.53902310087046     -0.88714325970671
  N          -1.10422756680435     -0.53709462796064     -2.02889366119289
  C           1.30550476222726      0.48395602147336     -0.00428638749287
  C           0.57604711869830      1.31964914280369      0.89398055519592
  C          -0.89906081926357      1.16591152787812      1.01764847203679
  O          -1.55021498838348      0.36917679804346      0.03452576157340
  Br          3.20115087219605      0.04136677481570      0.68469582584215
  H           1.54454868547764      0.83287654079375     -1.00601484153200
  H           1.05261518806851      1.65235442561661      1.80105848555933
  H          -1.39924960157548      2.13590573438625      0.90681131925868
  H          -1.15601209955502      0.77974439020391      2.01380539009828
  H           0.16641141912583     -2.36068041526179      1.07789811724685
  H          -1.99276167375701     -0.12084227321402     -2.26600420133722
  H          -0.91663275567786     -1.41146828897031     -2.49481527866854
