17
Coordinates from ORCA-job NEB_product E -29.894930931700
  C           3.10428347363205      1.40720868936072     -0.95245363055181
  C           1.72525661627912      1.84522372385805     -1.48333440980120
  O           3.03627498095453      0.10386488171228     -0.44213791894100
  H           3.80856061697812      1.45979890123352     -1.79949173842772
  N           0.77614631453474      0.90953430300088     -1.35802016289130
  C           3.51721118408808      2.44380138944189      0.09896787877836
  C           2.59337924421056      2.46574648720520      1.26268822575201
  C           2.01652600399431      3.56650017135495      1.70803609593462
  O           1.55417515400592      2.94609437137828     -1.95428789890761
  Br          5.34335789113219      1.97479581795419      0.73388016404643
  H           3.60848277681023      3.42532365457547     -0.36669955727665
  H           2.41450222096706      1.50577687436068      1.72910278149795
  H           2.19194995983904      4.52461673070855      1.24755882330087
  H           1.33943446619779      3.54971001984097      2.54410127916876
  H           3.89762726979672     -0.11839488716113     -0.06002174276769
  H          -0.15585780432826      1.09830916709211     -1.68583536481436
  H           1.01068963090780      0.01328970408339     -0.96565282409967
