17
Coordinates from ORCA-job NEB_reactant E -29.853784837990
  C           1.77721020957609      0.14805629905600     -0.06118867537898
  C           1.52769044443473      1.14912732781452     -0.91215886392495
  O           1.90609405045022      0.28960540332725      1.31709392539045
  H           1.87016776730290     -0.85276272964909     -0.45544495761656
  N           1.41812922445527      0.91909001724135     -2.28852523311692
  C           4.26517858264097      4.12730573486257      0.52413513237463
  C           3.51995357372193      3.06956624692871      0.26816479448529
  C           2.03576231302184      3.03402756786575      0.47332155868695
  O           1.36117209619885      2.48141663380709     -0.63917601471194
  Br          6.14300801747077      4.13229083274502      0.29045968887507
  H           3.88499062503456      5.06260169701057      0.90245575107272
  H           3.95520720696278      2.15787361526902     -0.11676741711799
  H           1.62877193201966      4.04254845588946      0.58003683362671
  H           1.81311861687115      2.45520245708638      1.37838747079824
  H           2.39793406439747     -0.46260419785333      1.65827355658378
  H           0.96163905618739      1.69417449179388     -2.74906707934045
  H           1.00217221925343      0.03308014680484     -2.53290047068605
