16
Coordinates from ORCA-job NEB E -32.532995461240
  C           0.40932507347126      1.12463009802617     -1.20617359469126
  C           0.31911177575813      1.43064633105512      0.09612819514239
  N           1.15314100493054      0.02280990609574     -1.71335797593647
  H          -0.04014522448770      1.73344280993764     -1.97367216265126
  I          -0.74778838949982      3.22720989320786      0.58231213814134
  C          -1.55956868913428     -0.94217264160174      0.10062191853469
  C          -0.39787334440206     -1.28286995774065      0.63130489681734
  C           0.31760372379161     -0.43561496929504      1.63810871405014
  O           0.82646730990715      0.82704637800992      1.13260285501080
  H          -2.04852027558123     -1.55590646560296     -0.63546337254374
  H          -2.08064326529913     -0.03937548560737      0.38253579754398
  H           0.10963235266913     -2.18536028197445      0.32704374900877
  H           1.20146707726329     -0.94074491133826      2.02713545463004
  H          -0.35458579418381     -0.17380858684002      2.46591846311274
  O           1.14755841403175     -0.11196092302784     -2.91873087979954
  O           1.74481825076519     -0.69797119330410     -0.93631419636997
