16
Coordinates from ORCA-job NEB_reactant E -32.539681445690
  C           2.00540704600624     -0.04985427710178      0.06645191727926
  C           1.24204564927098     -0.35496194408935      1.13500939848218
  N           2.33901472540813     -0.98783368550492     -0.94142278879530
  H           2.41254526269064      0.93408127269621     -0.08984029893972
  I           0.87194411279615      1.22269569775091      2.52024009535688
  C          -1.19467561702945     -3.96530105121616      3.19043725222738
  C          -0.43848479553688     -3.32102996315741      2.32397561496558
  C          -0.06463261138200     -1.87266755194868      2.45430115244839
  O           0.74341580732647     -1.53516676973352      1.34192275885000
  H          -1.43766215582575     -5.00397675127760      3.05807584555033
  H          -1.60089030947952     -3.48375777342624      4.06493009409409
  H          -0.02989145906885     -3.80012924608416      1.44667523998186
  H           0.49292461708713     -1.69832597458437      3.38578174608303
  H          -0.96337792856725     -1.23954319842645      2.46753120640268
  O           3.03382813699521     -0.56864824723485     -1.84692853356028
  O           1.92818951930875     -2.12698053666163     -0.85424070042637
