21
Coordinates from ORCA-job P E -31.625169668680
  C          -1.35922333731484      0.39939952043862     -2.38754731753060
  C          -0.04811217593758     -1.63024966764473     -1.02806453203508
  C          -1.37301798479888     -1.92079601767047     -1.65875073355437
  C          -1.99484763609078     -0.95775846151598     -2.31929218299141
  C          -0.91659994094324      0.79410942072586     -0.96456194424156
  C          -0.09453659720106     -0.29450320884227     -0.24693774125374
  H          -1.78330082725983     -2.91299805350651     -1.56275509189370
  H          -2.95617743447429     -1.08657136057591     -2.78824190807562
  N          -2.30937211323997      1.38498304741916     -2.86662960141591
  H           0.25389877520305     -2.43018002020234     -0.35280953990441
  H          -0.45852992376617      0.32654450953547     -3.04039425655061
  H           0.70988215555958     -1.56546223493016     -1.81849270328237
  H          -1.83149225060937      0.98637131551490     -0.40382163186901
  H          -0.53557777335739     -0.49338692330927      0.73231756257288
  H          -0.36229279814729      1.73622276627397     -1.00089939040950
  C           1.33924632988816      0.15250057686257      0.00111176796802
  H          -2.64813655547137      1.14092754937280     -3.79001346419401
  H          -1.88798353735800      2.30567841320496     -2.91568157683090
  O           1.88570649563686      0.08768743425395      1.06279974619476
  O           1.98455929269048      0.61761086753468     -1.08361010412085
  H           1.41520783699195      0.61030052706069     -1.86596535658202
