21
Coordinates from ORCA-job R E -31.549948705950
  C          -1.11453276007734      0.07532030020574     -3.19808828683835
  C          -0.11226363698770     -2.32729899723622     -1.64734992458905
  C          -1.35627599127519     -1.85507193025165     -1.66502284573805
  C          -1.81285524136986     -0.64089310635732     -2.30443401289948
  C          -1.17703571429957      0.97971450727619      0.37056120964645
  C          -0.10098101751650      0.25172618857147      0.62966457115255
  H          -2.12779869428843     -2.40436640721171     -1.13986761274132
  H          -2.80743039450684     -0.30658631498226     -2.03592633335808
  N          -1.51307278575600      1.29741251366787     -3.70272032156988
  H           0.12943133749669     -3.24524450687263     -1.14156394681557
  H          -0.13895508140038     -0.24551642621795     -3.53346378338316
  H           0.71036379631848     -1.82357419653098     -2.12466018487077
  H          -2.08617068329690      0.85617380673665      0.93412605654474
  H          -0.08989761043757     -0.47365768364528      1.42943433893327
  H          -1.19979507189003      1.74819361656243     -0.38713900167953
  C           1.20972518875785      0.40548968040031     -0.05538201549423
  H          -2.49422717502386      1.50930083910692     -3.59130914097989
  H          -1.14893848886525      1.54211439943092     -4.60980518312977
  O           2.24698930002811      0.09190868687236      0.46284052459974
  O           1.18603257179814      0.93561295577211     -1.28778090662008
  H           0.28208815259217      1.04141207470305     -1.62387320016957
