14
Coordinates from ORCA-job NEB E -29.857681029710
  C           1.22936960613675      0.70693440656339     -0.31671569909580
  C           0.64975580453430      1.02361571739695      0.91688112106324
  F           0.86428044781769      1.46455462488609     -1.36644601995427
  H           2.28804446539910      0.46464971401313     -0.37045490491798
  Br          1.54930360585598      0.18104734716497      2.43262331694336
  C           0.26363012501742     -0.92776750672390     -0.69483769086740
  C          -1.05662771933186     -0.50202385646549     -0.59898706673284
  C          -1.50829431960689     -0.04855249413123      0.67678586150191
  O          -0.59787429232112      1.24098227698607      1.03494661652611
  I           0.98509285691505     -1.60527893149665     -2.57408723477402
  H           0.68851375386815     -1.52499775471842      0.10393808958783
  H          -1.55924274425181     -0.13869446514295     -1.48301631436038
  H          -1.28444184880307     -0.69277049083704      1.52608798866841
  H          -2.51150974122971      0.35830141250507      0.71328193641184
