20
Coordinates from ORCA-job NEB_reactant E -49.541503120040
  C           0.44259072499443      1.01303016200954     -0.45204051983104
  C           1.71329990298387      1.32557973274029     -0.69791559188208
  I          -0.50694309844390      1.79914174437082      1.22534406188836
  H          -0.13751397417563      0.34413115867025     -1.05819481336942
  C           2.39649802237066      0.75605619404574     -1.92535005551812
  C           1.95881595275714      4.48525384504051     -1.28693985654962
  C           3.18227798897006      4.01544600335228     -1.11594669750159
  C           3.53537598372494      2.83566919610019     -0.26192122068987
  O           2.41642362096393      2.08065714120353      0.17246673428193
  C           1.64323639966752      5.66640126871195     -2.15291452827548
  H           1.09385824338149      4.06712030697660     -0.79342359670158
  H           4.02488930934287      4.48047921326019     -1.60709609416722
  H           3.99263372269335      3.18705934903424      0.66948422118644
  H           4.27148116076954      2.20900107250324     -0.77881136822481
  F           2.71345366587840      1.69896419942845     -2.83148492905916
  F           3.53881417928654      0.12080275469201     -1.62359909260341
  F           1.62150984657144     -0.12731170064142     -2.56043375703495
  F           0.95569242354895      6.60232165528628     -1.44926176949878
  F           2.75830146376287      6.27851635745942     -2.61306143194716
  H           1.02470446095155      5.39658034575592     -3.02699969450245
