21
Coordinates from ORCA-job NEB E -29.147782096810
  C           0.79562204950165     -0.82239218793665     -0.19487752801210
  C          -0.56944564777083     -0.54077408306496     -0.10736786330342
  H           1.18040952363294     -1.66063251322196      0.36592314492470
  H           1.27677105682372     -0.67968371509998     -1.15445174365066
  C          -1.24232022161791      0.29635468211816     -1.17289392242845
  C           1.52327227319253      0.54632406196495      0.95109222418729
  C           0.82940663272321      0.32255170900538      2.14742755236592
  C          -0.57944769105916      0.43920917742744      2.13849949486694
  O          -1.15451363968803     -0.67190525742247      1.04506274007806
  O           2.87643903062894      0.31842660707364      0.97315437783085
  H           1.22229095750011      1.40422912534775      0.34797468124844
  H           1.29404669858371     -0.35160345096951      2.85068687954157
  H          -0.99342993884888      1.34168763816907      1.69790825914850
  H          -1.09473910860012      0.14153374830838      3.04175885121551
  C          -1.40934955826743     -0.47128028111763     -2.48304117429035
  H          -0.64866931830715      1.19929456184255     -1.35601831176358
  H          -2.22259492312734      0.60044677912311     -0.80179340989226
  H          -0.44392457125665     -0.77438579844896     -2.88096751431864
  H          -1.90805927129178      0.14990624340442     -3.22362118672326
  H          -2.00784079835461     -1.36423752397133     -2.32102762120041
  H           3.27607646560309      0.57693047746862      0.13657207017535
