21
Coordinates from ORCA-job NEB_reactant E -29.186400529430
  C           1.37784809319224      0.28256501408233      0.17807497609250
  C           1.68616790918003      1.47875934096369     -0.30735826309118
  H           1.58530487119762     -0.02560389770280      1.18615586360488
  H           0.89239519458875     -0.44108392235341     -0.44934400458931
  C           1.36235247322096      1.90760628459034     -1.71376589967147
  C           2.72761877426615      4.28591017025365      3.21275091612142
  C           3.24983281133455      3.54008715146353      2.25000769161601
  C           2.61240666734046      2.29115191650284      1.73388208398430
  O           2.29821283719438      2.49099823724347      0.36782990959189
  O           3.25997999235051      5.42284341820941      3.71236644527888
  H           1.80753848143242      4.02947583069014      3.71795116958787
  H           4.16711767299166      3.83467466480926      1.75841366527111
  H           1.70129367833270      2.06291027704085      2.30225945711564
  H           3.30778387941435      1.44269078551018      1.82749052359784
  C           0.10383019631834      2.77511230048726     -1.73556340263705
  H           1.21873788077813      1.02687473961192     -2.33927357687460
  H           2.20303606741904      2.48478046206438     -2.10234602407995
  H          -0.74913543410159      2.21263369286705     -1.36261574031090
  H          -0.11213559237972      3.10460108961011     -2.74916307449589
  H           0.24398349793106      3.65046185744976     -1.10644516760285
  H           4.07203004799797      5.64085058660608      3.23679245149086
