21
Coordinates from ORCA-job NEB_product E -29.191818135160
  C           1.99847201378435      1.57428452231287      0.61940662961797
  C           0.82131903040078      2.09573877416477     -0.18698451349193
  H           1.68096846973908      0.71507453588342      1.21066811093717
  H           2.83091903641417      1.30283095038167     -0.02803381548519
  C           1.19559327593707      2.69407592816788     -1.51810402103895
  C           2.46670594101530      2.67778552658365      1.58730902301030
  C           3.48775448547554      2.11853159701948      2.53875190332701
  C           3.28020799820934      1.94579956242138      3.82997612350270
  O          -0.30345946838743      2.06012839510595      0.24304021109529
  O           3.01661410913281      3.72484807355864      0.80500056384001
  H           1.59377921821222      3.04480028283976      2.14962547549364
  H           4.43513884438946      1.86560950645441      2.08180229638022
  H           2.33829813881866      2.19778191698376      4.28943237945099
  H           4.03488999025923      1.53591931337265      4.47910808115422
  C           0.00658579885666      3.30897881315198     -2.24227847402051
  H           1.64971749175036      1.90657630323466     -2.12539454554734
  H           1.96917010033011      3.44069984559719     -1.32181179883256
  H          -0.75821693578186      2.55600464106615     -2.41599680622614
  H           0.31470251205934      3.72567096136813     -3.19791069484356
  H          -0.43146462084272      4.09957775800291     -1.63868620613102
  H           3.36460457022752      4.40088279232870      1.39558007780767
