17
Coordinates from ORCA-job NEB E -33.672032658780
  C          -0.02618300675943     -1.43426787348834     -0.25044823683137
  C          -1.41048561133810     -1.25716834137432     -0.25445426928138
  F           0.54049524922048     -1.81855955837816      0.90821684472563
  H           0.45700667264399     -1.92952939121800     -1.08880108134551
  I          -2.25651393836050     -1.16965247274203     -2.25022366102389
  C           0.54543416699661      0.44346036348951     -0.31042300584879
  C          -0.15341473305716      0.94997509302675      0.78365460967910
  C          -1.57396582681977      0.95640319628362      0.74704355505890
  O          -2.01062664603365     -0.62234547187810      0.66138613193332
  C           2.05550068509292      0.41915680855867     -0.28691406219573
  H           0.16646185794965      0.65208695181018     -1.30764601956969
  H           0.33820841335324      0.94192407781114      1.74570429336040
  H          -2.03878627785992      1.32759004065479     -0.16452164688298
  H          -2.08641759858581      1.27851606045510      1.64433253937366
  F           2.54818671205127      0.34051113346881      0.98437701236299
  H           2.44043819034909      1.35263974851149     -0.71774575922469
  H           2.46466169115709     -0.43074036499109     -0.84353724428997
