17
Coordinates from ORCA-job NEB_product E -33.713292803860
  C           3.29309518571949      1.13153717864407     -0.96073236383669
  C           1.80934509756186      0.87147524170911     -0.98731344905687
  F           3.80714982618590      0.50198505720426      0.13649807516199
  H           3.77037616909719      0.68307306425592     -1.84336709801319
  I           0.96129113812172      1.37691294233487     -2.92160191450916
  C           3.56695791188237      2.65218592531491     -0.90196329866418
  C           2.97337936875844      3.22627046992994      0.35583748796656
  C           1.97396101930419      4.08619793811460      0.36203253816931
  O           1.12114067947068      0.46215237750347     -0.12853413961198
  C           5.06959153658068      2.94730272346157     -0.99122248454048
  H           3.10406145903928      3.11058106945815     -1.78174629139086
  H           3.42332684833128      2.87170364676314      1.27210714440375
  H           1.51817695283117      4.44201463843789     -0.54867936593758
  H           1.56961259992475      4.47304746195192      1.28059551149509
  F           5.74661584124574      2.47615913115179      0.09611720773420
  H           5.22973569893898      4.03035285748978     -1.01998110708299
  H           5.51488266700626      2.47664827627462     -1.87514645228692
