21
Coordinates from ORCA-job NEB_product E -52.004605420850
  C           1.40568130511880     -1.63885368316139      0.54839405804281
  C           0.67506312834345     -0.68283367191431      1.47626734729456
  C           0.87630550883640     -1.46419305673329     -0.86446577488960
  H           2.47602055369526     -1.40849765156823      0.55002916902890
  C           1.38261859751735     -0.29617184228382      2.78875603610334
  C           1.19957134302413     -3.10018172578509      1.05506587532407
  C           2.31875667324791     -3.52805676227792      1.96878964238597
  C           3.45516473431382     -4.03081234448864      1.52499330889507
  O          -0.40027632685990     -0.22558399282463      1.23928928379754
  O          -0.06126319506521     -3.13196345015168      1.67681617027233
  H           1.20603772202805     -3.76172539610634      0.17175552967236
  H           2.12188017712948     -3.40509822899647      3.02326268768575
  H           3.64999054171178     -4.15835285843411      0.47210984090660
  H           4.23839953307872     -4.32955231287501      2.19835168501309
  Br          1.03306679771542      0.39965434604807     -1.42011997214383
  Br          1.98076447611647     -2.50660029800905     -2.09024709720326
  Br         -0.95335477157888     -2.03571732897161     -1.06890977192842
  Cl          3.13407681191889     -0.53728662516371      2.78974954003524
  Cl          1.04447314438879      1.42025613999284      3.10726878693606
  Cl          0.64444774155462     -1.28416349202825      4.06764398410231
  H          -0.27992449623534     -4.03626576426735      1.92679967066911
