22
Coordinates from ORCA-job NEB_reactant E -52.459938302100
  C           1.49449896891446     -0.09277847868469     -0.10301400273819
  C           1.50234912955254     -1.42208319783421      0.11267285032052
  N           1.95406162100076      0.60271844230724     -1.25905944352778
  H           1.10218363793006      0.56809790057773      0.65587236015627
  C           0.82198870846999     -1.94496119168174      1.38457439153801
  C           3.73962469212971     -4.15577065510952     -3.00540075028424
  C           3.63216031400624     -3.62675634285262     -1.79829688992350
  C           3.03460324686533     -2.28159636339329     -1.53861116556864
  O           2.05183422568301     -2.44420922393531     -0.51243566503480
  C           4.35653099321809     -5.48512548769623     -3.29157709303351
  H           3.38981640111221     -3.63331044531297     -3.88480676379199
  H           3.97852372323002     -4.16283860404239     -0.92675187322589
  H           2.57889222384734     -1.86504307671235     -2.44443630184335
  H           3.80375423297260     -1.58341718067943     -1.17921556255765
  O           2.40231768991405      1.71261523171910     -1.08319483323977
  O           1.82666822654877      0.06532200788217     -2.34282766861267
  F          -0.01501276800813     -2.94342691946781      1.10803399014801
  F           1.72802292887438     -2.41005933466248      2.25091543768112
  F           0.11996555690220     -1.00547578138728      2.02206584239960
  F           4.82389995052505     -6.09258616245587     -2.15688315318082
  H           5.21104720111913     -5.37963525611317     -3.97187398820386
  H           3.62126909519217     -6.16557988046490     -3.73914971747685
