22
Coordinates from ORCA-job NEB_product E -52.456351440340
  C           2.81523460833681     -1.78769507667980     -0.58528174245231
  C           1.54531342328111     -2.34351499037360      0.00595169284682
  N           2.53901565202583     -0.40134231792437     -1.11604698202274
  H           3.60970430056850     -1.69624470491482      0.16328609610505
  C           1.66784633793199     -2.65891316530719      1.53050331957250
  C           3.34274844157896     -2.61733394865952     -1.79433706802526
  C           2.34333562240881     -2.71395797927134     -2.90846917251088
  C           2.51697417583758     -2.13688966066559     -4.08358942929689
  O           0.51964229439708     -2.53030889405640     -0.57400205318477
  C           3.75102222601460     -4.01229252919423     -1.31016030171798
  H           4.24665552650905     -2.10740400821114     -2.14913402218987
  H           1.45122825859109     -3.28398703695310     -2.69793655220625
  H           1.78287144301871     -2.22204399881842     -4.86413823536707
  H           3.39524267978674     -1.55552370605663     -4.31370267247538
  O           3.33410782601550      0.43897771007360     -0.79738235381121
  O           1.58268653323951     -0.26662280901024     -1.82239217023214
  F           0.48911869400902     -2.93533068407112      2.07309470803558
  F           2.46872791161663     -3.71458908751447      1.72753345659494
  F           2.19953732027279     -1.62573595806321      2.19622687420466
  F           4.72173846067890     -3.90462785535439     -0.35076551712684
  H           4.17565719975276     -4.59042473168904     -2.13634224882299
  H           2.91319106412803     -4.55699456728497     -0.86361562591697
