18
Coordinates from ORCA-job NEB_reactant E -43.264658385640
  C           1.87665519562044      0.03987981435954      0.01579305568898
  C           1.26850741344870     -0.73568453081818      0.93294679256520
  N           2.08437356453798     -0.36445914844438     -1.33121267905643
  H           2.24474052072206      1.02375104753655      0.25341090630643
  Br          1.07259596519129     -0.01978701697474      2.69603551172286
  C          -0.68842869590082     -5.07274768940682      1.66470485635721
  C          -0.22095931129365     -4.01640844051050      1.01398865848404
  C           0.16748511892334     -2.73068122967505      1.66101736227063
  O           0.81304067008035     -1.93525715577027      0.68473333721449
  N          -1.05572362950553     -6.27477554893114      0.96199526602853
  H          -0.83485633183368     -5.14027207442140      2.73234962152880
  H          -0.10314063641072     -4.05337347708527     -0.06318221901744
  H           0.83723058117959     -2.90819958977784      2.51395859182206
  H          -0.72905728039588     -2.21374185381950      2.03527796683139
  O           2.65031362178145      0.43808994903246     -2.04314573338929
  O           1.69397586412085     -1.45717219614575     -1.68177585164818
  O          -0.95333354814901     -6.28871004378804     -0.24155425089801
  O          -1.44611908211674     -7.19265081535968      1.64715880718874
