18
Coordinates from ORCA-job NEB_product E -43.271416346920
  C           1.57326028639185     -2.26928723990357      0.38306852573512
  C           1.24910034040191     -0.92901229330383      0.99815398391389
  N           1.34128216732837     -2.16738710984240     -1.11188453362884
  H           2.64106770060016     -2.48948618907231      0.51277750629610
  Br          1.87253981953983     -0.83628095837044      2.84756131887916
  C           0.71316367041450     -3.36092823528689      1.03843443040416
  C          -0.75790773857281     -3.05735689019814      1.06627411146379
  C          -1.42004282179101     -2.85118671910339      2.18896980613566
  O           0.68046336668097     -0.01890830607894      0.51772057063211
  N           0.96739533666169     -4.67419753842217      0.32896476740228
  H           1.07347185697452     -3.51491461740526      2.06486414201545
  H          -1.24815004625668     -3.02523682753275      0.10463674397611
  H          -0.94374978379627     -2.88948474229699      3.15567304701959
  H          -2.47256611210892     -2.63227313324824      2.18237542238600
  O           2.10172864359775     -1.44869477141420     -1.69163824778035
  O           0.43081003368096     -2.79495572885466     -1.57241838754753
  O           2.03071213601079     -4.78264283574653     -0.22434993410664
  O           0.11072114424238     -5.50236586391930      0.42221672680395
