20
Coordinates from ORCA-job NEB E -33.552609612770
  C           1.28779767279306     -1.33975594462332     -0.78761245570243
  C           1.42011925086122     -0.52508390455481      0.24660845077268
  C           0.60645226197522     -0.93656125939734     -2.05817478196670
  H           1.67761090428122     -2.34450964220271     -0.75853864137520
  F           1.92568495297705     -1.00570754828014      1.44137029063962
  C          -1.33998653438785      1.58323258431389      2.68612022648633
  C          -0.83211365896082      1.03869837814663      1.58462451366984
  C           0.40060259861739      1.61904341692743      0.94540708653745
  O           1.34536480825901      0.80227135527838      0.23750803033991
  F          -2.53569275926134      1.19123390026070      3.15394130130027
  H          -0.79283888493667      2.12767335462542      3.43882305593150
  H          -1.40443877683699      0.29705656615683      1.04697851669367
  H           0.96379498557341      2.19265930882427      1.69306172268598
  H           0.03986129427019      2.33304778460641      0.17650665535055
  C          -0.85278676448965     -1.36534251017199     -1.99878939946365
  H           1.15368944001190     -1.39139561991104     -2.88148185039267
  H           0.62748464122092      0.14815630588580     -2.20084049303784
  H          -0.95356115740791     -2.42167705350642     -1.74370343387820
  H          -1.32736789628224     -1.20546336072217     -2.96582288049651
  H          -1.40967637827708     -0.79757611165581     -1.25598591409461
