20
Coordinates from ORCA-job NEB_reactant E -33.570610325390
  C           2.75002032293720     -0.01938943404252      0.40788540886330
  C           3.09525687049933      0.50352933337818      1.57293704741822
  C           1.47966969598083     -0.77610320335558      0.18565385031690
  H           3.44323833981263      0.06327936262245     -0.41351706511167
  F           4.26844471353545      1.18423524675219      1.69037717488479
  C           0.68550364882728      3.22939307659882      3.59479402550428
  C           1.77702463432899      2.71476441699632      3.06387130238443
  C           2.46485252967066      1.50757241501615      3.62165457666070
  O           2.40532960644396      0.40358951039195      2.72120159060655
  F           0.08587411031952      4.30790803560313      3.07400964859876
  H           0.18003302803852      2.87280811509024      4.48104556686700
  H           2.20079158920457      3.14664786155800      2.16820280124966
  H           1.96698177316337      1.15314953113486      4.52567679504035
  H           3.51131543729374      1.74634995273294      3.85090788668896
  C           1.75630876729719     -2.26041672307461     -0.05323129721767
  H           0.96822686251455     -0.36295862314821     -0.68745482899761
  H           0.83427974317870     -0.65781038974482      1.05635904054729
  H           2.40225529036841     -2.39346523256108     -0.91802440069562
  H           0.82591241830344     -2.79403140307891     -0.23070324504699
  H           2.24658061828168     -2.69535184886951      0.81405412143834
