20
Coordinates from ORCA-job NEB_product E -33.591524892560
  C           2.29334478241715      0.81498930814116      0.97714447743302
  C           1.11197419079528      1.47304551276588      0.33698794922209
  C           2.15260946328982     -0.70934900416894      0.88362929925730
  H           3.18701542114414      1.14164513266975      0.42872627855781
  F           1.26681480368786      2.83454035261284      0.30588958071297
  C           2.44526980773303      1.36043845894398      2.42154520903574
  C           1.45210185524104      0.75916623557312      3.37161674373953
  C           0.21610479197914      1.20020692990363      3.50420809180480
  O           0.13370872737141      1.00347117624572     -0.12109289992309
  F           3.72535447531239      1.09784381128515      2.86081709850125
  H           2.36161102208795      2.45566936472035      2.40493622098768
  H           1.82390671012125     -0.07541334411302      3.94811765455753
  H          -0.15612973875618      2.03696717135927      2.93573732030718
  H          -0.47793108924449      0.73902977789009      4.18414628438304
  C           3.43637476838829     -1.44586964293363      1.24352093198544
  H           1.86875980766151     -0.95670095475682     -0.14164665835966
  H           1.33716238502754     -1.03174446729656      1.53350098133234
  H           4.25161228233292     -1.13315184467915      0.59493187166829
  H           3.29366958989643     -2.51651731849453      1.12225893181576
  H           3.72776594351353     -1.25386665566827      2.27162463298096
