19
Coordinates from ORCA-job NEB E -38.944278281600
  C           0.86588736207002      0.81191225166463     -0.07305969918000
  C          -0.37984868932515      1.06262929831254      0.56436675993934
  O           1.06778493510966      1.36738222988799     -1.29570278557611
  H           1.74129343350878      0.77613611863370      0.57707182082384
  C          -0.43056903508953      0.90646962072652      2.08070101908381
  C           0.52978944935940     -1.06754999192414     -0.46273789478020
  C          -0.63249551487835     -0.99208474120667     -1.25677124730176
  C          -1.83276150067031     -0.63281932660902     -0.64135364907231
  O          -1.47101310298772      1.01016457808014     -0.08840688052033
  C           1.76058249466182     -1.40191756684415     -1.08971545484377
  H           0.44122436474095     -1.46741284570774      0.54285146707339
  H          -0.51301131442944     -0.82060694765119     -2.31716113712638
  H          -2.06153968149012     -1.04762323768727      0.33233639807116
  H          -2.69550736912524     -0.45108409338199     -1.26411880369274
  H           1.94544410591007      1.15001713747671     -1.63535812497355
  F          -0.42117372275965     -0.41093193011521      2.45366106461715
  F           0.65656543842214      1.45474533211512      2.66772336554145
  H          -1.33425592579322      1.36352490249016      2.50674904591605
  N           2.76360427276590     -1.61095078826013     -1.60107526399905
