19
Coordinates from ORCA-job NEB_reactant E -38.979781313880
  C           2.17089910955839      0.35479344765018      0.33743681610102
  C           1.92319017965732     -0.89447887633455      0.74393853069881
  O           2.80328524500444      0.66363411858271     -0.79971899862612
  H           1.90312141750919      1.21254710347010      0.93412460405190
  C           1.23534981766330     -1.20570264883645      2.04255911334549
  C           1.47395670785466     -5.13372152785073     -1.45235251758278
  C           1.94394991338338     -3.89430134897783     -1.32843261878781
  C           1.32505669919410     -2.85329746870700     -0.45775702683856
  O           2.35244027354305     -1.96765562507340     -0.02468592237760
  C           2.06722112744745     -6.08191504273574     -2.30862501535138
  H           0.60292841356067     -5.47620307799381     -0.90821864603065
  H           2.82058905960209     -3.57711967799907     -1.87593256394858
  H           0.81136418589700     -3.31192860221947      0.39653374589334
  H           0.57411813041683     -2.28959694427704     -1.03604284468042
  H           3.03952114604676     -0.15699774020499     -1.25958912246897
  F           1.39149750093598     -0.20405447852528      2.93441734762813
  F          -0.11604545806961     -1.34546980603801      1.87922425350998
  H           1.60555314073586     -2.13714424644182      2.50014854776263
  N           2.54000339005916     -6.86418755748776     -3.00032768229840
