19
Coordinates from ORCA-job NEB_product E -38.973750139140
  C           2.61912264947643     -2.23058151696461      0.16068797825253
  C           1.63371687285083     -2.08218697815267      1.31296287471700
  O           2.80773658249800     -0.97559675453065     -0.43217579018058
  H           3.55816395595614     -2.59197109947830      0.61997359123229
  C           1.70781988721446     -0.69492025659435      1.97495428574428
  C           2.10334718931677     -3.30929311908734     -0.83149852253643
  C           0.83568680850042     -2.85537977022195     -1.51003630825185
  C          -0.28671278654988     -3.54574134601563     -1.48438906578061
  O           0.88454631784871     -2.93781041912876      1.67859823433924
  C           3.12496464305015     -3.54069838670557     -1.82626460143852
  H           1.92327298068162     -4.23486650639297     -0.27476806595851
  H           0.90692813692773     -1.90548353642295     -2.02174828222276
  H          -0.36544600510670     -4.49034986778128     -0.97243978938502
  H          -1.17652658440100     -3.18899164364199     -1.97289296586660
  H           3.52007238565997     -1.02783424176030     -1.08176404695598
  F           0.99747908601545     -0.66541121651584      3.11683403344683
  F           2.98695601680525     -0.39294089110735      2.29439041114289
  H           1.32727401334161      0.08339647957305      1.29367676785491
  N           3.93729784991405     -3.66593892907053     -2.62050073815309
