17
Coordinates from ORCA-job NEB_product E -40.922592385860
  C           2.76086107169061     -1.55091079481232     -1.17419731129697
  C           1.49838270609665     -2.29254785925403     -0.80342287718696
  Cl          2.32736941353236      0.17136944986918     -0.98824175027288
  H           3.58907004729003     -1.76532744247588     -0.49305373246618
  C           1.52202127231286     -2.96467034209887      0.56104261627011
  C           3.21192957959323     -1.82612408676938     -2.62420698070360
  C           2.13875244404759     -1.60746390770170     -3.64586992406618
  C           1.94816562434878     -0.45239541848885     -4.25406741762969
  O           0.52528061500639     -2.36794359425123     -1.49163891775409
  F           3.63452175259071     -3.13844535394107     -2.65068865951585
  H           4.09590983583598     -1.20887974102875     -2.83049184479118
  H           1.51968733739178     -2.46833026759511     -3.84790501339409
  H           1.15612126040321     -0.32280994858608     -4.96961254169155
  H           2.56606900364763      0.40845858098819     -4.05765465545242
  Br          2.05070476059776     -1.72625148161822      1.95627384439669
  Br         -0.21730453503357     -3.68811256434119      0.96078994909981
  Br          2.82795781064801     -4.41401522789468      0.44274521645502
