18
Coordinates from ORCA-job NEB E -42.408017774350
  C           0.85382479527888      0.64787416604795      0.53594827303404
  C          -0.31857349077965      0.05120224406153      1.06521868629926
  C           0.77933360205524      2.05287393899150      0.27303323834176
  H           1.79947690410053      0.36118969724646      0.99388882748025
  C          -0.15274701505556     -1.24973955960337      1.83831196658851
  C           0.86840164069921     -0.06664469618003     -1.18422715235103
  C          -0.38161843785211      0.31670408836594     -1.68783729230481
  C          -1.53709327392726     -0.21013658206847     -1.04380378232130
  O          -1.46369708373822      0.27524091833892      0.50502324957452
  I           2.61076788105120      0.67190899611125     -2.16270989906093
  H           1.02045855412524     -1.11004210221128     -0.93278400157498
  H          -0.46761301707376      1.25447362372696     -2.21777083045836
  H          -1.56728665202062     -1.28889655626338     -0.90864507490758
  H          -2.48815274065685      0.19453484057503     -1.36886848800079
  N           0.70425653842339      3.17509572810048      0.07559966315692
  F          -1.19115901748809     -1.52118203651969      2.62203800940160
  F          -0.01719954078521     -2.30873554433480      0.99697235664902
  F           0.94862035364363     -1.24572116438502      2.60061225045391
