24
Coordinates from ORCA-job P E -31.263729134490
  C          -0.87178592759933      0.44473490790854     -2.75197369454478
  C          -0.31543960867572     -1.59976439557458     -0.63267671652913
  C          -0.87139577785770     -1.94165172848156     -1.98149674105574
  C          -1.12862530008567     -1.03202207531300     -2.90608481899910
  C          -0.28179618083045      0.79263863210806     -1.36979469460319
  C          -0.71150149853637     -0.17722314283577     -0.28507062249182
  H          -1.04847642639491     -2.99052208978910     -2.17407173800066
  H          -1.53095187073351     -1.33157202224939     -3.86395847187992
  N          -2.02273367863467      1.29506717392741     -3.05811180906781
  H          -0.68946490129788     -2.29854208623492      0.11934919906323
  H          -0.11547327120474      0.72037606820861     -3.50031315782127
  H           0.77614943396970     -1.69218603602495     -0.65117008607292
  H          -0.57715277794980      1.81239870635906     -1.11697509262663
  H          -1.78412052510605     -0.12475887635623     -0.09519922159509
  H           0.80830976335800      0.76689312242156     -1.43748525464806
  Br          0.12217653057681      0.34935761823575      1.42614519146617
  C          -2.31824993267451      1.36972231712850     -4.47348079116268
  C          -3.21079060064021      0.99754603153351     -2.28622344464528
  H          -1.41005071657198      1.61856454437821     -5.02053965378821
  H          -3.04297146722720      2.16803975907626     -4.63247695033439
  H          -2.73666387456763      0.44086756016690     -4.88848618832049
  H          -3.01657572834852      1.17457613380243     -1.23071580223381
  H          -3.56698375807110     -0.03553340594673     -2.41641413070975
  H          -4.00366190489654      1.67689328355145     -2.59588530939863
