24
Coordinates from ORCA-job TS E -31.167797541060
  C          -0.08556977274123     -0.28722514627287     -0.65807681490677
  C           1.46218349368679     -1.99638491899910      1.05834670478363
  C           0.12887224601019     -2.19333847676963      0.83204810059485
  C          -0.63705229444384     -1.35721274963448      0.00887352047521
  C           0.51873519883984      0.77342051918238      1.35726554237418
  C           1.38863577084490     -0.02998669952700      2.02553207225684
  H          -0.41161681853290     -2.88501884013070      1.46504209146703
  H          -1.70885961091614     -1.47922372721663      0.03768423641922
  N          -0.77222271743482      0.60478787782667     -1.42503304242856
  H           1.97932731544487     -2.61457988397638      1.77564383358629
  H           0.97571590899715     -0.28537268147715     -0.85238360707236
  H           2.09323729124791     -1.57798238159669      0.29397465413336
  H          -0.51512178964238      0.79419547538082      1.64998545481716
  H           1.13447575438092     -0.52912482396575      2.94460580130709
  H           0.87036650682073      1.56246910333841      0.71878765794903
  Br          3.26274611302723      0.37001203587278      1.93286980769672
  C          -0.08030842581639      1.75299389288990     -1.95494193180970
  C          -2.19503724276610      0.77049617809983     -1.25076334106648
  H           0.97717486692752      1.52736950004098     -2.07584159618385
  H          -0.17989289036523      2.62854710884243     -1.30102094968076
  H          -0.49266981821167      2.00807336778591     -2.93301258208044
  H          -2.44591243236473      1.16806638711439     -0.26028034151194
  H          -2.70074131198715     -0.18510938659071     -1.38298718307367
  H          -2.56646534100546      1.46012826978258     -2.00631808804609
