19
Coordinates from ORCA-job NEB E -34.718417084230
  C           0.89642639876121      0.74202643582962     -0.35592439729251
  C          -0.22328803318438      1.17163241909070      0.39340301129948
  O           0.91334009142820      1.00470342803124     -1.68930680950267
  H           1.86482924624894      0.76170478561035      0.14273326105523
  C          -0.08080096952699      1.29299711669325      1.90192116607219
  C           0.39831938944520     -1.18612406163794     -0.27289725216096
  C          -0.84986254921297     -1.17154673421443     -0.92018080979583
  C          -1.93018268778801     -0.57888855327883     -0.26490837495023
  O          -1.39673136626010      1.10179824873377     -0.09931226136031
  C           1.51687892139514     -1.72855476504811     -0.95536690546623
  H           0.43537046637719     -1.33313200885171      0.80202911732597
  H          -0.86158179299498     -1.23521991148418     -1.99869905228765
  H          -2.06217249329847     -0.76618385790955      0.79386693409650
  H          -2.85182636464499     -0.44157280173473     -0.80905985899355
  H           1.69941837728441      0.62622913444995     -2.10356425562681
  F           1.03903292552157      0.64801026380235      2.36931279896691
  H          -0.94947237063485      0.85149815058498      2.40331134255152
  H           0.01035646655824      2.34437900809396      2.19657807683635
  N           2.43194634452564     -2.10375629676072     -1.53393573076741
