19
Coordinates from ORCA-job NEB_product E -34.755558076560
  C           2.69057186717790     -2.32436684692959      0.46616376249064
  C           1.89869193055517     -1.96054600096998      1.72426065551161
  O           2.92612425942625     -1.18001668350894     -0.30658735919643
  H           3.63982369287514     -2.77789166832020      0.79843888371926
  C           1.52452229889902     -0.50022486209492      1.79767698185664
  C           1.87450576965641     -3.41580177514941     -0.29267275234953
  C           0.54614469729134     -2.86897559333320     -0.74781798033569
  C          -0.61256909699555     -3.35000951450920     -0.34288430016328
  O           1.60720820558011     -2.78531029521316      2.54384378439856
  C           2.64440940639752     -3.84535642044034     -1.43576124957284
  H           1.72703759443882     -4.26200714140140      0.38675663905142
  H           0.60492947216917     -2.03166322359536     -1.43015359703674
  H          -0.67869727983567     -4.18138054180932      0.33934355372373
  H          -1.54463259945885     -2.92749346595628     -0.67560736962923
  H           3.43133452973060     -1.42569905819050     -1.09239898134026
  F           0.80063678040367     -0.22105448123851      2.91793823855180
  H           0.92058202761810     -0.23275564787162      0.92348645516187
  H           2.42975706838191      0.11648371489240      1.80999553998855
  N           3.27451937568892     -4.12153049436045     -2.34882090483009
