17
Coordinates from ORCA-job NEB E -40.152916029580
  C          -0.08404336363203     -1.45617987083925      0.26960687538004
  C          -1.40881660574734     -1.33839171967212     -0.17048867478252
  F           0.11160324944872     -1.40137359609105      1.60100944836716
  H           0.56413094432811     -2.20474126175030     -0.17888922778300
  I          -1.71806651961030     -1.94510604804053     -2.21549174654113
  C           0.56754616711946      0.29464950737381     -0.25475956415854
  C          -0.34452312482992      1.12718941927118      0.40296425906445
  C          -1.71086844243091      1.06252120551021      0.01091457410022
  O          -2.18679200711943     -0.45947807014811      0.31202861884033
  C           2.02666730762697      0.40380945983164      0.08136155971520
  H           0.43738538696807      0.16555732075287     -1.33018260130712
  H          -0.11265875496107      1.47255705905882      1.40048052728388
  H          -1.91319888603913      1.12039612117095     -1.05759564474881
  H          -2.40867837803294      1.64173655435870      0.60233434908902
  Br          2.69521317612309      2.06274592365327     -0.77225140194640
  Br          2.41980484032385      0.52209277150717      1.97734453107139
  Br          3.06529501046479     -1.06798477594727     -0.67838588164416
