17
Coordinates from ORCA-job NEB_product E -40.195608437200
  C           3.34249069883841      1.28029139888881     -0.62805274950617
  C           1.85055035208913      1.03688603892640     -0.67818174142457
  F           3.88353202378575      0.37848079102784      0.24309472084931
  H           3.78487772420680      1.08552004876075     -1.61556622746846
  I           0.92993869797401      2.08460566192758     -2.33106532595335
  C           3.61482173694152      2.72416860791880     -0.15879963927045
  C           3.04052246634092      2.92506798168779      1.21905644961232
  C           2.17522585057855      3.87853178432551      1.50585215326352
  O           1.20838956542377      0.37796208296095      0.05276260065058
  C           5.09758848990842      3.09025926347749     -0.18266776804316
  H           3.11871411004794      3.39951713476834     -0.86838868157418
  H           3.37947062322846      2.22292286895817      1.96825131312100
  H           1.82912910193259      4.58324475228026      0.76674637236140
  H           1.78169070875175      3.99372064847219      2.49990032100504
  Br          5.26425367983635      4.99537781219730      0.24331520723258
  Br          6.17973384844424      2.10133055658586      1.09198955956282
  Br          5.85687032167139      2.83371256683596     -1.97454656441821
