17
Coordinates from ORCA-job NEB_reactant E -40.180998767510
  C           2.24382243814374      0.42719904507929      0.35079549042114
  C           1.49591689492120      1.03216956347322     -0.56256232398923
  F           2.86667160698760      1.07945065646779      1.35949476725443
  H           2.42082811224422     -0.63368945594075      0.37349825129827
  I           0.59510802767211     -0.16340709937052     -2.04084278994008
  C           4.21188742229338      3.59774641503189      0.53171788982659
  C           3.24677703449090      3.45994322771142     -0.36239249889399
  C           1.79984895883917      3.32808567836521     -0.00041720172217
  O           1.15913353474165      2.31490638493306     -0.76284879359829
  C           5.65550630929399      3.72810872602279      0.24393738625468
  H           3.98555971230273      3.61452152710514      1.59120020888625
  H           3.45156235579216      3.42303627915536     -1.42465254049714
  H           1.26849272404169      4.24334276035054     -0.28283062188855
  H           1.66957017369710      3.15609017840828      1.07285423129094
  Br          6.32085644663367      5.41994833916371      1.01499356084896
  Br          6.62246039876988      2.24438066516002      1.11158823341212
  Br          6.11619784913481      3.71606710888353     -1.64053324896393
