21
Coordinates from ORCA-job NEB E -33.493144767480
  C           1.15774959325940      0.56341115123531     -0.31420104374520
  C           0.55366669231033      1.72089163985815      0.16453618729450
  N           1.27793600464480      0.33303965563298     -1.68186550525433
  H           1.95705467597983      0.14229716243366      0.28282833904527
  O           0.81841133094649      2.04693628680629      1.47538585406129
  C          -0.51015445604468     -0.65749393013145      0.23107893843375
  C          -1.51445279449055     -0.02616307068420     -0.48796023785974
  C          -1.90262986337786      1.27384249882046     -0.13712376638816
  O          -0.44893165877902      2.26056795454330     -0.41114999222283
  O          -0.06654697622272     -1.87246139617377     -0.21269474867691
  H          -0.40649392126631     -0.47809006953264      1.29715642835849
  H          -1.68989638732213     -0.37445934195177     -1.49537724943201
  H          -2.01025357747679      1.50278721631659      0.91576125868773
  H          -2.60627781012285      1.78746027325828     -0.77338482778827
  H           1.31025781721414     -0.65307061934174     -1.91225013387774
  H           0.54338361265245      0.80332086911946     -2.19863283032885
  H           0.24604260433888      2.78643311612829      1.71841438052166
  C           0.67649504617682     -2.63097270716038      0.71236280827838
  H           1.59820268236842     -2.11683229731101      1.00365525903221
  H           0.92648828361321     -3.56505304612532      0.21222253052849
  H           0.08994910159815     -2.84639134574046      1.61123835133227
