21
Coordinates from ORCA-job NEB_product E -33.531545340430
  C           1.68376493246496     -2.11650349418556      1.15089394992836
  C           1.54381439611997     -0.68773196754243      1.66414546249573
  N           1.27689414922528     -2.24394841483372     -0.22934602480207
  H           2.72837271825622     -2.42827793294839      1.25082094068491
  O           2.09194725105279     -0.50624765219312      2.86939717268036
  C           0.85857097476826     -3.05598849931819      2.07324852508615
  C          -0.61057893142009     -2.90911598610462      1.78828669305803
  C          -1.44302210803045     -2.22306490772859      2.54761226495872
  O           0.99751112692352      0.19462072831918      1.05714557943361
  O           1.32891424948829     -4.36653852372078      1.84339625998751
  H           1.06703123703644     -2.77106398028590      3.11977333050725
  H          -0.93980943190886     -3.40754453919410      0.88807879980434
  H          -1.11456967511302     -1.72935202985561      3.44858255316374
  H          -2.48544710970445     -2.11808152155089      2.30055103998767
  H           1.96951116262739     -1.82769619023729     -0.84096385318816
  H           0.40446363488665     -1.74420735448521     -0.37330951007708
  H           1.97650790916770      0.41364620400092      3.15963655278732
  C           0.79679878004940     -5.31100214228544      2.73660541660521
  H           1.05043255033506     -5.05962965101798      3.77505038930442
  H           1.24613117972355     -6.26641703494036      2.47414129302778
  H          -0.29343899594861     -5.38345510989191      2.65185316456619
