21
Coordinates from ORCA-job NEB_reactant E -33.511329373580
  C           1.96060490605300      0.01577188329020      0.24248559025492
  C           1.65797791154530     -0.55668941866673      1.40707020102582
  N           2.01143638961607     -0.66965526337171     -0.97185981686475
  H           2.27108779073677      1.04704143308304      0.22395897839833
  O           1.67200703381782      0.15639001867022      2.58353444001975
  C          -0.42050060601900     -3.94867126546266      3.56238657789421
  C          -0.13352028256327     -3.57516077768983      2.32122144594103
  C          -0.01870478131327     -2.14119796518133      1.92256761953669
  O           1.33274621366322     -1.89063891055360      1.51216423689598
  O          -0.54478339128260     -5.19802678022757      4.05951414827875
  H          -0.62094869639720     -3.22511475043972      4.34233841712821
  H           0.08086839246363     -4.28605806388508      1.53983413964255
  H          -0.28719166875688     -1.48423689220754      2.75882118525065
  H          -0.68961545940366     -1.91850998309448      1.07855798761225
  H           1.64241203970374     -0.14509888753770     -1.75276540070216
  H           1.60061469564253     -1.59157605293400     -0.90071121872873
  H           1.93840099885049     -0.43913082395311      3.29529860813803
  C          -0.30682609816775     -6.27505167729380      3.18270203399453
  H          -0.43815540630576     -7.17940892243218      3.77390863472310
  H           0.71127137740553     -6.24178123565975      2.78336181349676
  H          -1.01978135928869     -6.27309566445264      2.35241037806406
