20
Coordinates from ORCA-job P E -37.285381301130
  C          -1.20432607787432      0.56899159577661     -2.27666383280644
  C          -0.41992083830166     -1.72276690581920     -0.54694481460713
  C          -1.16486800238875     -1.86993790219570     -1.83325687014996
  C          -1.52536583631663     -0.86275393084809     -2.60865488816935
  C          -0.98017373615009      0.71863897437321     -0.76910156101310
  C           0.07399967507231     -0.29483151547687     -0.30866972512035
  H          -1.40770161377400     -2.88381163992355     -2.11700051337115
  H          -2.04614243526555     -1.03638748527852     -3.53741365301363
  C          -2.30528534436819      1.49665170191274     -2.77628507790232
  H          -1.06598379722461     -2.03158300918028      0.27911682710907
  H          -0.28167642288994      0.85211550223870     -2.80100307936657
  H           0.44780821486571     -2.38556693965797     -0.55495586646643
  H          -1.91104075508598      0.52528684460040     -0.23568866354561
  H           0.25118138142632     -0.15195697525318      0.77094953357995
  H          -0.65045070404607      1.73285065050966     -0.53556520948111
  O           1.29129468497179     -0.14044753292844     -1.00565586424724
  Cl         -3.87545699208431      1.05382036432574     -2.07192220151890
  Cl         -1.96416853908897      3.19295871546145     -2.35635791134433
  Cl         -2.44929965155060      1.41323708660606     -4.55012338935603
  H           1.60346679007354      0.76461240075723     -0.89746323920937
