20
Coordinates from ORCA-job R E -37.199676264790
  C          -1.23126821484005     -0.10540904552986     -2.96955259318790
  C           0.15428905958137     -2.60766219657721     -2.02659718650309
  C          -1.09936360945153     -2.25506925673149     -1.76400627123547
  C          -1.68022835907251     -0.95552254641081     -2.04685503821793
  C          -1.34934114819365      1.55623737516525      0.63823632081855
  C          -0.49365704290231      0.55814394947958      0.51000228017592
  H          -1.76397888712570     -2.95313452456262     -1.27251417728256
  H          -2.54729918837436     -0.69526026031529     -1.45620891935614
  C          -1.78540951630593      1.23602581460079     -3.25489593659740
  H           0.51682777315380     -3.59123033095315     -1.78285579162205
  H          -0.37948138364146     -0.34957832121617     -3.58540926410811
  H           0.86128501029149     -1.92288531113332     -2.45930799392012
  H          -2.17924974692943      1.49554238906256      1.31595821448391
  H          -0.57356644050259     -0.36532272580574      1.06528283816127
  H          -1.24322125383590      2.46658742812862      0.07207805324083
  O           0.57537239865208      0.53519574758521     -0.32013120733238
  Cl         -3.22654253203419      1.64707778432476     -2.32109769941022
  Cl         -0.53261408981269      2.48022788719812     -2.91175002404271
  Cl         -2.19407635406284      1.37063802256729     -4.99719829317834
  H           0.61086352540638      1.36375812112350     -0.81987731088604
