20
Coordinates from ORCA-job TS E -37.181133370670
  C          -0.39027212261735      0.35479154011767     -0.98358263378172
  C           0.98921889615500     -1.81751982825163      0.22554294863310
  C          -0.30380839411140     -1.92318772601690     -0.17850416940748
  C          -0.98434675998353     -0.87054501779788     -0.81361417127146
  C          -0.00724921886162      0.86416257272732      1.14182188962461
  C           0.89030863277709     -0.00985024491492      1.67953597928309
  H          -0.89447504116787     -2.76744592411336      0.14800458081030
  H          -2.05182562161939     -0.95954661137133     -0.95080883591380
  C          -1.15270910403251      1.48748165909801     -1.57239500425176
  H           1.43719720784513     -2.59585125536263      0.82054509991343
  H           0.67234133853611      0.42334667003152     -1.15492218658546
  H           1.68659387226205     -1.17026122695935     -0.27351272122392
  H          -1.04631098642051      0.76779339880069      1.39061063547705
  H           0.60765180623926     -0.79382521359986      2.36142288344372
  H           0.32395707129141      1.83696546392079      0.81949816347208
  O           2.22810757513838      0.23181666349683      1.71645572181923
  Cl         -2.71607640209386      1.73908505961572     -0.77137925925491
  Cl         -0.23372751566678      3.00758114926011     -1.49308095002138
  Cl         -1.48180574814085      1.16700270251938     -3.31828321704503
  H           2.42723051447123      1.02800616879981      1.20664524628031
