29
Coordinates from ORCA-job NEB E -47.263588966240
  C           0.50908113851408     -0.34462723965144      0.34010729638821
  C          -0.85490113145741     -0.64851548810642      0.47078895256370
  C           1.20825087542820      0.37996912938564      1.46976929233224
  H           1.11951797105041     -1.12963380205383     -0.09835874572745
  C          -1.45645101869440     -1.89413182096166     -0.13588315057274
  C           0.32860325574666      1.01310445061801     -1.03183142969279
  C          -0.52438486778243      1.96051957440245     -0.46089687278653
  C          -1.83310075215792      1.50607432523555     -0.09179922613686
  O          -1.66893179364118      0.28875638820207      0.90104681060051
  C           1.71015115208438      1.45966539295761     -1.42585631877015
  H          -0.06875068259942      0.37048915786185     -1.80967399206757
  H          -0.08935727455143      2.78043793825582      0.09008312948621
  H          -2.41573391231376      1.05829111288765     -0.89485515196794
  H          -2.42472255548362      2.21073697008659      0.48231729746197
  C           1.44880895692417     -0.59840484188500      2.61830775740258
  H           0.58444473960191      1.20133656651931      1.82279020200664
  H           2.16756726504690      0.77977951132177      1.14372824645333
  H           0.50212874718733     -0.98145783334048      2.99231305104288
  H           1.96863612627224     -0.09719278312961      3.43076291995249
  H           2.05601433679325     -1.43815299575172      2.28731005272541
  C          -1.35112899793416     -1.98167839300888     -1.66128041240320
  H          -2.50758333712744     -1.92881904720575      0.15592846177988
  H          -0.95436999577040     -2.76252775691676      0.29753936304839
  H          -1.86851914527231     -1.15254624890708     -2.13873760753986
  H          -1.81136760640917     -2.90564264076525     -2.00308761224622
  H          -0.31178717136669     -1.98357047352422     -1.98111181057102
  F           2.59885169502039      0.45173626050637     -1.47446053190993
  F           1.69880431354567      1.99069175539669     -2.66584847718815
  F           2.24022966934615      2.39531283157068     -0.62911149366399
