29
Coordinates from ORCA-job NEB_product E -47.312078974150
  C           2.06492095420845      1.01726544434230     -1.85663057198977
  C           0.80008902593963      0.42120978529007     -2.47307646791195
  C           1.81200811976241      1.04504892297688     -0.33390563400419
  H           2.92394141633829      0.37443056315627     -2.06418010611921
  C           0.83660197822916     -1.07310477347061     -2.68375544078632
  C           2.31071987477704      2.42567887184929     -2.43407404436573
  C           3.32937662677129      3.22449157235958     -1.67331974316661
  C           3.04075776562701      4.31567252794634     -0.99057201961238
  O          -0.16069619227657      1.09988620293271     -2.72711653002484
  C           2.80121226364116      2.30499934964893     -3.87241743054086
  H           1.35205810994776      2.95585484932303     -2.46532920052762
  H           4.34458620136540      2.85612961250231     -1.73733810358491
  H           2.03628399092070      4.70085719627142     -0.93283106227252
  H           3.79692020770033      4.86713578264178     -0.45969322948113
  C           3.08083092495448      0.86267403450282      0.48899074982622
  H           1.11477634088063      0.24231104218225     -0.08033230292400
  H           1.32916544376826      1.98725799992450     -0.07293391842001
  H           3.56551040763761     -0.07979469546322      0.24354290534196
  H           2.83443898477449      0.85302510039670      1.54793624378728
  H           3.78219680844987      1.67171243238156      0.30912095132699
  C           1.56847158047568     -1.39470789646997     -3.98984861471758
  H          -0.18806217632105     -1.44223579088956     -2.74477787180369
  H           1.34708260309329     -1.55485101058528     -1.84815469491537
  H           1.08144070379396     -0.89750073362009     -4.82439526750708
  H           1.55481475398833     -2.46740526274674     -4.16509472869035
  H           2.60412992770771     -1.06545787307058     -3.95195540077274
  F           3.94642260927729      1.60044126825546     -3.96195586084582
  F           1.93415835907600      1.69581522631750     -4.69165468152555
  F           3.05604238549139      3.50346025111434     -4.41834792377220
