19
Coordinates from ORCA-job TS E -31.679561178640
  C          -1.05422228549848      0.56097628228880     -1.40155098921619
  C           0.47858967416279     -1.56542263287046     -0.24662925475810
  C          -0.85847514229042     -1.65422702289924     -0.45156582940775
  C          -1.61765674702788     -0.62650932716422     -1.05341356580694
  C          -0.39698413571026      1.23976367416426      0.66530707405422
  C           0.37333552960126      0.26764105736445      1.22815851721046
  H          -1.41188060854754     -2.46036867776546      0.00862584500132
  H          -2.69457489379920     -0.71463989607763     -1.03848869614958
  Br         -2.11860511713250      1.98771355542460     -2.05988319458400
  H           0.99565644463778     -2.31372284765825      0.32948715118002
  H          -0.02317165619200      0.65752296179342     -1.69682646251459
  H           1.10807011020135     -0.94167617717298     -0.85639870436300
  H          -1.42441460806655      1.34285712064957      0.96961124903636
  H          -0.06305460202635     -0.41321790212814      1.94233403852014
  H           0.02440072885773      2.11902757972880      0.20096818727915
  C           1.85519664269674      0.25548779224266      1.23805424196789
  O           2.49106434746581     -0.44078034063549      1.98113757335468
  O           2.47902516801385      1.07317593582816      0.36609902839785
  H           1.85770115065386      1.62639886488715     -0.12502620920197
