14
Coordinates from ORCA-job NEB E -26.847489479960
  C           0.12491064739550     -0.15002380124435      1.49295524503577
  C          -0.91080550267894      0.61363459702222      0.96691491592705
  Cl          1.61045419528761      0.66453852580162      1.88515818743174
  H          -0.10768447746832     -0.92732421669445      2.21046505133080
  Cl         -2.49865262488241     -0.17642584151023      1.04620566562796
  C           0.60816566141314     -1.10650919817748     -0.20606150004470
  C           0.78262061087615     -0.05122965093350     -1.07944301439281
  C          -0.34843330582453      0.76604324344193     -1.38322470785206
  O          -0.73747139470273      1.46050471362895      0.03167867649341
  H           1.47432360352191     -1.67203980684574      0.10380975176145
  H          -0.31006921382827     -1.67663905981948     -0.24979490219456
  H           1.76532841701180      0.38399269912361     -1.18696099286500
  H          -1.27256329343869      0.24204490142069     -1.61705779783162
  H          -0.18012332268221      1.62943289478621     -2.01464457842744
