14
Coordinates from ORCA-job NEB_product E -26.894166311220
  C           1.80633524137551     -1.63144356432297     -1.26106945624755
  C           0.50396614131724     -2.24607171493564     -0.82436355765423
  Cl          1.56626894857412      0.12225665304259     -0.93252568750958
  H           2.63512914570467     -1.95264522810762     -0.62763589685680
  Cl          0.42243787628250     -2.44529049776527      0.92162831464939
  C           2.08787045811647     -1.85661421775643     -2.74302039064801
  C           3.35800703486851     -1.17984564410253     -3.15925770314343
  C           3.42676834203807     -0.24660089636278     -4.08816562431742
  O          -0.41184180343583     -2.54690087201657     -1.51173544895760
  H           2.17206862781894     -2.93593305566913     -2.90177792458031
  H           1.24677259427447     -1.48807547639753     -3.33131782408398
  H           4.24715167340907     -1.50247596071827     -2.63389958894496
  H           2.55166544544037      0.09004369549804     -4.61880140572440
  H           4.35860027421588      0.21789677961412     -4.35995780598113
