14
Coordinates from ORCA-job NEB_reactant E -26.869939775550
  C           2.03728794035897     -0.82610787743121     -0.36512281593241
  C           1.03628516485981     -1.03314048943939     -1.21783488480412
  Cl          3.60675006574614     -0.21865965235438     -0.75116462816657
  H           1.91191208731964     -1.04866487343880      0.68005897373480
  Cl         -0.43911570749318     -1.64429095917372     -0.54476922176988
  C           2.84990742626437     -2.87257767608410     -3.06393846495218
  C           3.01221812837508     -1.62755068762366     -3.46745219519839
  C           1.97662749966363     -0.54532849388419     -3.36647565811570
  O           0.87077805234310     -0.86449859216836     -2.53262564218686
  H           3.63104850892936     -3.60466918374310     -3.16744337947913
  H           1.93335850358095     -3.21332440840423     -2.61161623917279
  H           3.93528460863212     -1.30163178570883     -3.92557290734048
  H           1.52065595484053     -0.38201346073675     -4.34973018808299
  H           2.43830176657947      0.39455814019074     -3.04491274853330
