21
Coordinates from ORCA-job P E -37.199469503340
  C          -1.31902506290258      0.38906255413540     -2.33987004741338
  C          -0.09640218211093     -1.73300991779108     -1.04028483917823
  C          -1.43461654108667     -1.94645431864600     -1.67566352198476
  C          -2.00796962783948     -0.94305252128895     -2.31893084635626
  C          -0.89624572451300      0.71660420347011     -0.89674420811637
  C          -0.04871351530237     -0.39908487980616     -0.26241420471235
  H          -1.88051613255318     -2.92562491931500     -1.61115446560634
  H          -2.96925540436263     -1.02124473195849     -2.79907881817068
  N          -2.22270743376251      1.42578410063945     -2.80789782466312
  H           0.16282552456708     -2.55562194685404     -0.37421261636302
  H          -0.40235277596182      0.30492528860492     -2.95837533615834
  H           0.65954543799113     -1.69664512477541     -1.83255816947620
  H          -1.81155413584199      0.85940539117680     -0.32284684444329
  H          -0.38169290261074     -0.56973414586729      0.76534348506659
  H          -0.34681016088141      1.65975490468999     -0.88264755647316
  C           1.40089092132228      0.04868455424500     -0.15983342526428
  H          -2.53675723777656      1.22123776422366     -3.74990994173316
  H          -1.75600241305794      2.32593062597129     -2.82285995368451
  F           2.19480234136698     -0.89994534450431      0.36439845568617
  F           1.93356851832202      0.36869998094644     -1.35036834630473
  F           1.55025850699430      1.13247848270369      0.62003902534942
