21
Coordinates from ORCA-job R E -37.116654928370
  C          -1.09702925636048      0.04811969471625     -2.88866421583486
  C          -0.50895498728712     -2.61514807840924     -1.56209250398834
  C          -1.71092359878590     -2.09825202092297     -1.81070182379574
  C          -2.00353322180267     -0.81538698005651     -2.40395535559876
  C          -1.12466791365770      0.66231704078132      0.18098560982315
  C           0.06941486767102      0.15061049541353      0.41225650049297
  H          -2.58600119577145     -2.67937957186532     -1.54460672731368
  H          -3.05083974369256     -0.54549956612534     -2.46243973213794
  N          -1.39511638111253      1.30215595827030     -3.36143836697967
  H          -0.40232169660664     -3.58898724961393     -1.11650464323091
  H          -0.04204060835736     -0.17949419611192     -2.86718836879614
  H           0.40513407546984     -2.09896841888568     -1.79730874550999
  H          -2.01216814741471      0.18435689088607      0.55413229716658
  H           0.23464166905322     -0.76234069194991      0.96228233317598
  H          -1.25408143139740      1.57210954980640     -0.38012166955056
  C           1.32738707170869      0.77518266227334     -0.10210070198103
  H          -2.36228290161324      1.47391425634640     -3.58966081506835
  H          -0.73188011762961      1.72792541714121     -3.98672024906223
  F           1.95052162303127     -0.01091286214772     -1.00322748942230
  F           1.13740787776725      1.95537213107080     -0.70737095644751
  F           2.22415401678808      0.98982553938294      0.87838562405933
