21
Coordinates from ORCA-job TS E -37.108011440510
  C          -0.76831441056382      0.45300061666455     -1.42975311635425
  C           0.55835812726651     -1.71429434028844     -0.03787097839546
  C          -0.75971128827399     -1.74628796284915     -0.37554836950294
  C          -1.40755495061986     -0.69572741462455     -1.04636961541144
  C          -0.28223973552496      1.03689087947290      0.80559953400093
  C           0.47012498722462      0.05362975508603      1.37202653312390
  H          -1.38896615722526     -2.51821950239218      0.04638218711695
  H          -2.48614903506098     -0.73018199885773     -1.12471115428284
  N          -1.42362240642687      1.49493173479961     -2.02524530235921
  H           0.98029861053132     -2.50539852599862      0.55974704642780
  H           0.30202453890747      0.47431747244499     -1.55695008899578
  H           1.26707747409932     -1.15189468298548     -0.61808465117434
  H          -1.33138772059204      1.10835751873988      1.01979309572971
  H           0.07093370518484     -0.61683318346235      2.11359342457112
  H           0.19068745378497      1.89141500672357      0.35613758469059
  C           1.94931376311535      0.24000357453814      1.44521972437523
  H          -2.41211083415564      1.57473327043620     -1.84611093373353
  H          -0.93481687692850      2.36914086296190     -2.11520029057989
  F           2.62696343674663     -0.87174502229324      1.76486956481426
  F           2.48730004675420      0.70442311361454      0.30152927440877
  F           2.29179127175670      1.14973882826944      2.39094653153041
