20
Coordinates from ORCA-job NEB_product E -29.096778699480
  C           3.07708178653898     -0.78510007065872      0.96602756281530
  C           1.61252317819662     -0.47880720749342      1.29462388437736
  N           3.30753217983887     -0.85319204240643     -0.46679125828713
  H           3.72790730597001     -0.01621716397365      1.39505130408504
  N           1.38608747475920     -0.08430166822952      2.56674688129228
  C           3.47279841747914     -2.13772925785868      1.61529408888187
  C           2.66310795969511     -3.26018167646071      1.02459466002926
  C           1.72290846492863     -3.91858110169340      1.67513356997564
  O           0.73056342414246     -0.58116581768561      0.47105309045753
  N           4.90914643928035     -2.29702937636624      1.43812922151058
  H           3.27668475725693     -2.08325284083521      2.69460317982878
  H           2.91743575400929     -3.51939507078242      0.00582544287223
  H           1.45997201071957     -3.67511045946055      2.69224022779856
  H           1.16906445552013     -4.72208088087044      1.22050540532277
  H           3.35167203800003      0.08238347427255     -0.85614854562814
  H           2.50253372618677     -1.30713997805607     -0.89385301858701
  H           0.43969947715014      0.09024443794987      2.86296214654068
  H           2.12481805867566     -0.02513192459621      3.24375060220675
  H           5.12800766347578     -2.13515985286784      0.45915285590048
  H           5.18595542817634     -3.24515152192730      1.67159869860717
