26
Coordinates from ORCA-job NEB E -39.867225061790
  C           0.54268051023274     -0.23316920166727     -0.37869853708002
  C          -0.55993908143773     -0.08324716677250     -1.23415248075381
  C           0.61196430810341     -1.45296451871648      0.51211643985813
  H           1.50699397306551      0.03696375028918     -0.80065182584441
  C          -0.46941325742771      0.77272286385091     -2.46589669595254
  C           0.10470583754227      1.22821253520557      0.79981526313122
  C          -1.17173789151940      0.91244951355206      1.27389295689429
  C          -2.21114206409426      0.78456524523483      0.29827529305708
  O          -1.75511248715888     -0.32076500364505     -0.74239023722052
  C           1.21815674939560      1.38144119277967      1.80940589212471
  H           0.18598980631207      2.01355640223381      0.05198428259790
  H          -1.25266441601757      0.35032801022365      2.19153994526097
  H          -2.35204681772614      1.64828402702790     -0.35164116628556
  H          -3.15620905910037      0.40057034037844      0.66534118804937
  C           1.01459198778574     -2.66657668840878     -0.32354996870959
  H          -0.36327338035619     -1.63414480730015      0.96468491354067
  H           1.34714876866813     -1.31259704766814      1.30276006915649
  H           0.27623441324905     -2.85166331800069     -1.10043982550233
  H           1.08471799798906     -3.54812641982017      0.30888677911913
  H           1.98099740700034     -2.50432786674119     -0.79645644694595
  H          -0.71538407173135      1.81077430475412     -2.22022624733092
  H          -1.19306480162100      0.43220020712667     -3.20301333913418
  H           0.52761984801552      0.74183667127251     -2.89379164050929
  F           1.15099115198284      0.48433211957729      2.81984937808595
  F           2.44226694574333      1.22358542814568      1.24365356872365
  H           1.20492762310500      2.38575942708812      2.26870244166958
