25
Coordinates from ORCA-job NEB_reactant E -47.174448892670
  C           1.33417116619727      0.27843633894864      0.06120312966307
  C           1.33544970198150      0.67186527904047      1.34209163196240
  C           1.37092748038218     -1.10773978681558     -0.49897360897524
  H           1.26576964110569      1.06873009612192     -0.67167374852517
  N           1.21603226471809      2.15059409933970      1.55692461346673
  C           4.24069780805080     -1.29364652052212      3.73107703785357
  C           3.45409150714759     -1.14370951116889      2.67822916026607
  C           1.95873492966289     -1.20044266251442      2.74735848851369
  O           1.38632812216106      0.09702074031463      2.52265294416598
  C           5.73207518052756     -1.25203553607230      3.68945307911886
  H           3.80836672675481     -1.48898190039046      4.70423596790148
  H           3.87425345138626     -0.94839176140143      1.70146750867210
  H           1.62806089372225     -1.45509554952633      3.75601701174771
  H           1.55471035419889     -1.93248071514490      2.04563865839568
  F           2.56351181484566     -1.72741416641043     -0.28073717944997
  F           0.43289208312220     -1.91605656699364      0.06429313371571
  H           1.19597517811553     -1.11027866543874     -1.58428440205054
  O           1.35588266049533      2.53895294596356      2.68406325799511
  O           0.99250718389811      2.83736459580755      0.59017306102058
  C           6.33109401502864     -2.56702072895335      4.18796175136622
  H           6.07897975543520     -0.43779089674426      4.33180416096560
  H           6.07163652120294     -1.05252896185219      2.67196740409451
  H           6.01412103305199     -2.76918837453134      5.20851003055102
  H           7.41691345771290     -2.51981349904981      4.16691380445634
  H           6.00781706909466     -3.39154829200628      3.55693310310849
