27
Coordinates from ORCA-job TS E -36.776692397560
  C          -2.00970906803896      0.82464800135608     -1.54850344233970
  C          -0.56475822699519     -1.57388416093078     -0.92991769452554
  C          -1.89481960554334     -1.57322570036165     -1.18899962765650
  C          -2.60530750976509     -0.40787481198891     -1.53572460203992
  C          -1.46870906763714      0.91618374880503      0.58048492346133
  C          -0.60891311910759     -0.09554734113303      0.90969783442290
  H          -2.47939019522240     -2.45486438045353     -0.96192817759207
  H          -3.68734034562289     -0.45898191078666     -1.56625274913070
  O          -2.69123982490104      1.97605509047220     -1.77650775898694
  H          -0.08167432691370     -2.46152591811620     -0.55628669832899
  H          -0.96386966971139      0.94824693694154     -1.77981058212495
  H           0.09450985973847     -0.83355254201813     -1.34165197639667
  H          -2.49543701584246      0.85497773163608      0.90093955213561
  H          -1.00049297886048     -0.95056526261178      1.44204072354944
  H          -1.10318889909290      1.91004612268055      0.39089441889140
  C           0.84374388308102      0.03251260188892      0.91851673049872
  H          -3.63999012600966      1.81905245156888     -1.68450090460066
  C           1.51641915563253      1.04884311402221      0.23736618276801
  C           2.89407479090635      1.13986730493822      0.28172366011429
  C           3.63467325238533      0.22145935495856      1.00731140139643
  C           2.98295608190495     -0.79419779769661      1.68735860403332
  C           1.60630598068145     -0.88915301287085      1.63916951288200
  H           0.95931394995947      1.77339125889397     -0.33765606221115
  H           3.39561012195195      1.93308193981662     -0.25434854808274
  H           4.71156461886274      0.29591709549091      1.04108438212551
  H           3.55268940130068     -1.51594685436187      2.25509967287245
  H           1.10297888285926     -1.68496306013974      2.17040122486511
