23
Coordinates from ORCA-job NEB E -32.475068459590
  C           0.57821285585358     -0.64401966114290      0.56355073217554
  C          -0.75907180905591     -0.85749866007355      0.92036194466969
  C           1.41203230415042      0.25665014888267      1.44520955298770
  H           1.13885859465521     -1.51057640351046      0.22660494447876
  C          -1.49155646202106     -2.07881514028884      0.43618030087967
  C           0.26401000368873      0.38547351075574     -1.05819086319783
  C          -0.50304500338591      1.45075082751761     -0.58252648678826
  C          -1.76026808679714      1.16591532422932      0.02240462039250
  O          -1.46602519192688      0.18270757564124      1.28118778563489
  C           1.60874735262225      0.65865246414110     -1.67621049223422
  H          -0.27642928983114     -0.40460150591048     -1.57431078504212
  H           0.00147173450564      2.36428795373402     -0.30094382200898
  H          -2.44044744464809      0.54089170690410     -0.55312143005320
  H          -2.27063048606356      1.99771939634083      0.49289288149913
  F           2.71764327801378      0.30203129844685      1.02215335795838
  H           1.43875576187431     -0.15013945348831      2.46383764528985
  H           1.03806120631551      1.28261345191265      1.47460725626442
  H          -1.93886799621473     -1.88350548639468     -0.54296153304363
  H          -2.30000088696649     -2.31595663134235      1.12377432199130
  H          -0.82402369969574     -2.93047341697699      0.35226601039337
  H           2.22794790656122     -0.23445659036552     -1.68522253267776
  H           2.13890475386162      1.44259426559717     -1.14361686466853
  H           1.46572060450439      0.97975502539079     -2.70792654490065
