23
Coordinates from ORCA-job NEB_product E -32.521714418560
  C           2.01673592704473      0.58161172459290     -2.19802167472195
  C           0.62422654490481      0.01377947941267     -2.44804193843060
  C           2.05133621741838      1.11358047482858     -0.76159945655856
  H           2.77265283896761     -0.20331614503740     -2.28938501267176
  C           0.58272822217794     -1.45672064426474     -2.76211176259738
  C           2.30564174192889      1.70143857360530     -3.22285189909635
  C           3.61823707955829      2.36129342692829     -2.92430205641557
  C           3.75613281092761      3.63974310168855     -2.63079840349874
  O          -0.36113087072487      0.70246704478697     -2.38028242194861
  C           2.32270257586648      1.12959134150950     -4.64255214496453
  H           1.49911131786702      2.43801400255951     -3.14736157675099
  H           4.48235133571868      1.71202966534551     -2.96906469381547
  H           2.90897329978176      4.30455158189926     -2.57744696897433
  H           4.71844793669739      4.07779635201498     -2.42975987554495
  F           3.34368118643162      1.22163682920926     -0.31501205792219
  H           1.54540897807452      0.42621734429281     -0.07405189307632
  H           1.59888212524910      2.10616860338217     -0.69267757669625
  H           1.19214141483786     -1.66398017977003     -3.63912993557253
  H          -0.43994501614998     -1.77849664474400     -2.94017324338289
  H           0.99988340085984     -2.01449841628288     -1.92555652933178
  H           1.34974853992545      0.71830188264828     -4.90244174952491
  H           3.07309959840958      0.34614377504340     -4.73304943672241
  H           2.56355279422727      1.91624682635110     -5.35362769178092
