20
Coordinates from ORCA-job NEB E -41.038894385030
  C           0.80646290965941     -0.18676370348728     -0.27444734888383
  C          -0.30639368224460      0.53246172412545     -0.90418259702977
  C           0.68214661867140     -1.71822966650778     -0.47059082140827
  H           1.75804019012025      0.10050081724695     -0.72698789123018
  C          -0.10630403062797      1.57324437278348     -1.94796265257397
  C           0.77127445248449      0.22268681792335      1.22702029421538
  C          -0.54666490422929      0.16206057862873      1.72989389031911
  C          -1.73498831668397     -0.00744617831366      0.86626410583518
  O          -1.57235602413771      0.36133965192151     -0.47590497793147
  I           2.25022153204237     -1.04680877906287      2.59777071064465
  H           1.33501538376872      1.13765652705152      1.34963767102735
  H          -0.72418819846956     -0.00809587917077      2.77849136658722
  H          -2.54179817982442      0.64366560861212      1.22534589284369
  H          -2.11461017771746     -1.03741647754452      0.93765006177806
  F           1.89603019272199     -2.29898672479003     -0.46650901246006
  F          -0.05107581600406     -2.32295420178100      0.48611101142208
  H           0.21239820011000     -1.95471585982742     -1.44032477957139
  F           0.45975321221936      2.71313301778560     -1.38637683845405
  H          -1.06483716739752      1.87831643293379     -2.37481810037271
  H           0.59187380553858      1.25635192147284     -2.73007998475702
