20
Coordinates from ORCA-job NEB_reactant E -41.087114984910
  C           1.77384346092669      0.12289392873324      0.14572832234439
  C           1.57969336628583      1.37408328419465      0.57940304646352
  C           1.50866833556302     -1.19155366286943      0.80343018670729
  H           2.15223294787833      0.02850766600672     -0.85921014432037
  C           1.88035535819853      2.53947047837505     -0.34286719207823
  C           2.66678086738918      1.37369099831500      4.82516927506127
  C           2.42597148883475      1.04804526248312      3.57128577932828
  C           1.06523109053621      1.16276667729068      2.94889084643269
  O           1.11717862749102      1.89462936201765      1.73072777123164
  I           4.56269551512851      1.19738444133623      5.71011360718455
  H           1.91285208099899      1.73919843705576      5.50175816923911
  H           3.20965517027105      0.68069740559380      2.92506564747797
  H           0.39749006540352      1.74654827218852      3.58781354849018
  H           0.62480313419792      0.17301386832103      2.81220879964129
  F           2.27522213748995     -1.40859971061784      1.91210588024382
  F           0.21890743930201     -1.31559285700416      1.23407896517031
  H           1.69807082077195     -2.02774272729476      0.11598655279306
  F           2.14705343711334      2.14594124049530     -1.62063992549903
  H           2.75746484547150      3.08771344574000      0.02011652315339
  H           1.01712981074768      3.21230418963945     -0.37396565906514
