20
Coordinates from ORCA-job NEB_product E -41.086149927550
  C           2.52679818065215      0.57445085810449      1.24568924414613
  C           1.45678760678404      1.36896813766595      0.48233088379820
  C           2.35907558096284     -0.92531059837652      0.96724489795737
  H           3.52005723917169      0.85094620230195      0.87911970626669
  C           2.04889282435479      2.54235785876483     -0.28537989438841
  C           2.39102768759510      0.97748930241781      2.72766730830466
  C           1.31942722904358      0.26392596178059      3.46952999158535
  C           0.24216958192101      0.87466295942913      3.92793709889238
  O           0.29043385748022      1.11825483673794      0.51863444721575
  I           4.30415243180832      0.71641675972846      3.76475467496171
  H           2.22207413752263      2.05598185044462      2.77287620323271
  H           1.46643947542870     -0.79469653279695      3.62664278704663
  H           0.07695609183837      1.93032191279678      3.78458128961410
  H          -0.52584482269873      0.33571179909165      4.45286409805875
  F           3.22333120427400     -1.65301094417276      1.71050769492662
  F           1.12993232299618     -1.38858980424830      1.25486601343702
  H           2.56019337313259     -1.15309699306692     -0.09318820980254
  F           1.07452292207315      3.32106447215508     -0.82821724368589
  H           2.67373603576023      2.17191668631343     -1.10813938416697
  H           2.65063703989913      3.17713527492876      0.37647839259974
