17
Coordinates from ORCA-job NEB_product E -36.239013103090
  C           1.25684852335073      1.28365589302026      1.33328328737813
  C           1.67320345666061      2.52545711867586      0.58993237752159
  H           1.82032652694351      0.44746385666428      0.90220715305757
  H           0.19258357582204      1.08507296928639      1.18803265825041
  C           0.72730428621803      2.94408692264523     -0.53856820587225
  C           1.56685780331593      1.34745359625839      2.83100316599165
  C           3.01605501147096      1.39553997589101      3.16650746923157
  C           3.58752624149899      0.53307172540154      3.98739033324752
  O           2.65718084842925      3.17068391758159      0.79389848438925
  Br          0.67072530493276      2.96508956478547      3.58260058501651
  H           1.08038237639511      0.50829732101602      3.33358147427136
  H           3.57968938854844      2.19770315159188      2.71356783640457
  H           3.03295343260342     -0.26330432218713      4.45765958434586
  H           4.63607045155136      0.58905810898541      4.22027548587814
  Br          0.46126028324993      1.43661990571969     -1.75117013853490
  Br         -0.99045195809921      3.46936793416277      0.22455952501689
  Br          1.48568444710815      4.42888236050133     -1.51496107559387
