17
Coordinates from ORCA-job NEB_reactant E -36.230658870820
  C           1.91464627328763      0.20398098956423      0.08181908474590
  C           1.71405995380797      1.48942792615648      0.33440717483357
  H           2.26748393084976     -0.47251065237140      0.83725250768782
  H           1.73355891038913     -0.21670688768999     -0.88842779423619
  C           1.21530260649648      2.49777444612407     -0.65394746737284
  C           1.90129020985204      2.24600913654348      4.91766867791536
  C           2.51455136096963      2.38856963544737      3.75654182629717
  C           2.35950542629401      1.41627287371383      2.63030092270952
  O           1.90079564212217      2.14588239637696      1.50721314452218
  Br          2.12116001060379      3.46298705618711      6.33840734416281
  H           1.24884822910258      1.42122215332395      5.15920590716130
  H           3.14832458222722      3.23930784149476      3.55350510595709
  H           1.64217983217217      0.62578711511986      2.88605167458534
  H           3.33243987411745      0.95846225567914      2.39787456604170
  Br          0.94466404339193      1.82153871267781     -2.43586754050451
  Br         -0.48926768120871      3.21649429760192     -0.00016219801774
  Br          2.49695679552474      3.97370070405043     -0.74514293648848
