17
Coordinates from ORCA-job P E -26.667190146270
  C          -1.58266678782926      0.77746845049768     -1.79036476930793
  C          -0.59730881487520     -1.39218077930194     -0.43843504540289
  C          -2.07146780005206     -1.31064754999413     -0.67722523175476
  C          -2.55013732634313     -0.26863057945887     -1.33780937049627
  C          -0.66496972301916      1.18511494995427     -0.62921845574638
  C          -0.06329854607604     -0.03939720939946      0.09453992013547
  H          -2.70342898632037     -2.10293475454117     -0.31047245524406
  H          -3.59364809431627     -0.11344938650309     -1.55404573650290
  F          -2.24870043623766      1.89726330718593     -2.24099502803420
  H          -0.35030880163787     -2.18425731175260      0.26865215149797
  H          -0.98837388268342      0.41789467252927     -2.64431403359808
  H          -0.09173648027559     -1.61845094066151     -1.38340875997121
  H          -1.26976404032522      1.76802977071033      0.06784681316745
  H          -0.29802787462251      0.02439016170481      1.16284699186123
  H           0.12519506078120      1.83674192126572     -1.00789200486888
  C           1.37531148568143     -0.02917598780493     -0.03168967460659
  N           2.51300104815112     -0.03111873443029     -0.14061531112796
