17
Coordinates from ORCA-job R E -26.576331887600
  C          -1.17910936800263     -0.30634685487814     -3.05540598724138
  C          -0.17528672342124     -3.02870153685203     -2.27699736514046
  C          -1.43345803031246     -2.69918099382161     -2.54473957328645
  C          -1.93222019009823     -1.34866902600186     -2.73156071989191
  C          -0.98579391377957      1.57865572222997     -0.08285645332371
  C          -0.27236225758997      0.48416838653841      0.15641723460733
  H          -2.18572020570242     -3.47366047201508     -2.62449122989345
  H          -2.99776817068613     -1.20084622657433     -2.61977144215961
  F          -1.71715000608327      0.91930667814288     -3.20090447130938
  H           0.12064465835194     -4.05593012381420     -2.15200517985831
  H          -0.11641280590581     -0.30521789820496     -3.23926647414054
  H           0.59841622555019     -2.29077171696549     -2.14911912776357
  H          -1.88204756576051      1.79570367527287      0.47368155588535
  H          -0.55035831458293     -0.23381949034444      0.91807994114710
  H          -0.70358093604480      2.28663587484887     -0.84427035644616
  C           0.90163090470557      0.16925954567769     -0.55659913702643
  N           1.85167669936227     -0.10867554323855     -1.13600121415839
