17
Coordinates from ORCA-job NEB E -34.569612226390
  C           0.80985640698924      0.06741320407733     -0.83991856834347
  C          -0.55057036601126     -0.42910023959598     -0.53498311143447
  H           1.43509549415113     -0.77427697647030     -1.16710315880271
  H           0.75548303225604      0.74393583786653     -1.70224716371407
  C          -1.32255072208513     -1.13982098901587     -1.58003327718461
  C           1.50140320456115      0.78412230633662      0.31972665338754
  C           0.68563820666325      0.89552498265176      1.53959155663701
  C          -0.64011611983306      0.30631311679888      1.71317787311976
  O          -1.22103794596415     -0.36893729135637      0.64332020554014
  H           2.44048966203623      0.25903906612275      0.54623879583880
  H           1.80695049254239      1.78440030618287     -0.01510390164226
  H           1.10859407393907      1.38204243853556      2.39958360630588
  H          -1.36815410937141      1.08152922517079      1.99641818764801
  H          -0.63672178974768     -0.41306825939273      2.54633885809339
  F          -2.49185571982716     -0.53195675263928     -1.90192005080373
  F          -0.63295656307667     -1.24617768665820     -2.72692634486044
  F          -1.67954723722199     -2.40098228861435     -1.23616015978477
