17
Coordinates from ORCA-job NEB_reactant E -34.622544853960
  C           1.62510625793553      0.34689261444911      0.06517403823978
  C           1.65834153068298      1.36549293812700     -0.78422242737377
  H           2.00140398494679      0.41985836176866      1.06770467316744
  H           1.21120367497077     -0.59646682307999     -0.23510959683708
  C           1.12178664373190      1.24181650606102     -2.19738848151881
  C           2.95012477549682      5.24459977442909      1.55920755953465
  C           3.16471073723739      4.35506655033241      0.60992240899157
  C           2.68463020942788      2.93780851067732      0.66387910315453
  O           2.13156669496518      2.61566742877986     -0.60426179054268
  H           3.32818087135882      6.24913647216010      1.48805026898204
  H           2.39662399207107      5.00304215522753      2.45182930308699
  H           3.71292356706774      4.60464725512438     -0.28666655228596
  H           1.92890274755252      2.80738183128019      1.44846209512298
  H           3.53017917210402      2.26387085887020      0.87049050213637
  F           0.12721902776549      2.10753409610806     -2.43587602133726
  F           2.06907264145746      1.48143222360231     -3.11530638880104
  F           0.63682347122761      0.02141924608276     -2.45958869371977
