17
Coordinates from ORCA-job NEB_product E -34.631319117480
  C           1.91447750037191      1.71144969268147     -0.15716828338687
  C           0.77905456841561      1.90931332810893     -1.10787472399559
  H           1.54001834703587      1.20854130593894      0.73585508557893
  H           2.70691447620333      1.11764581084855     -0.61362402670791
  C           1.21080619569141      1.83710353783373     -2.60712365702513
  C           2.47181454799719      3.09423409305296      0.25829172734568
  C           3.57916533544518      2.92267920390170      1.25021581008089
  C           3.54563996234804      3.38877449369282      2.48374541614150
  O          -0.36096702404551      2.13224045831196     -0.82511589839882
  H           2.85437655180351      3.60976786626826     -0.62562017217136
  H           1.66703683878910      3.69027222472163      0.69062364473510
  H           4.43956059505808      2.37382120344101      0.89145315684252
  H           2.69768012054679      3.93672174049418      2.86043768329537
  H           4.36690505102780      3.25246913552504      3.16573145489010
  F           0.20923134975735      2.08184289173774     -3.44569206177530
  F           2.19030686773486      2.71509661387733     -2.88014263554036
  F           1.69707871581947      0.61872639956375     -2.89879251990875
