20
Coordinates from ORCA-job NEB E -46.031101255700
  C           1.04511600562607      0.30352353792991     -0.55182719496369
  C           0.36400550993911      1.36928422099839     -1.14201026325411
  C           0.98823371019500     -1.02899757330572     -1.27930447287820
  H           2.02818877288216      0.49804403282689     -0.13494682418512
  Cl          0.88616061002297      2.98363876315520     -0.68680735556128
  C          -0.15443649742083      0.09953218510059      1.01111802695115
  C          -1.41543396246493     -0.01362086055884      0.43163848686712
  C          -1.89529925072642      1.08228442042215     -0.34415020365230
  O          -0.83462850103080      1.24745810414334     -1.56090235803482
  C           0.36708920707821     -1.05361990864804      1.83746446072227
  H           0.13231457616231      1.05218645861290      1.44627542458339
  H          -1.81407730630075     -0.99892284435916      0.24054957396184
  H          -1.82190189525115      2.06653900030473      0.11285070188290
  H          -2.82949497976369      0.93193667299584     -0.87058491012338
  F           1.34869083488862     -0.85045458173956     -2.57690312456029
  F           1.88945281069141     -1.88605818129163     -0.76619706970584
  H          -0.00004626396693     -1.51161149279388     -1.28009267012989
  F           0.08757247897768     -2.25002855214914      1.27430210128304
  F           1.70720127135709     -0.98654275297104      1.99120119612862
  H          -0.07870713089512     -1.05457064867294      2.84832647466859
