20
Coordinates from ORCA-job NEB_reactant E -46.059255374840
  C           1.71287644476108     -0.08826138949529     -0.06282835134144
  C           0.88906629393938      0.22555871685566      0.94420901765218
  C           2.45935636594615     -1.38457194810465     -0.07393673027021
  H           1.86013074273467      0.58610162215578     -0.88460439056602
  Cl          0.05343181874941      1.74307431343029      0.91197581421252
  C          -0.14514108080520     -1.26171214743487      5.28815199110680
  C          -0.24841619513527     -1.37168888294831      3.97538006576547
  C          -0.18469164406166     -0.21353979325265      3.03319054287565
  O           0.68254702751377     -0.58276444498154      1.97056980940883
  C          -0.23669371156187     -2.42527447686466      6.22840447487238
  H          -0.01107937866972     -0.31237008475674      5.78615555388762
  H          -0.37866434618954     -2.33561163419715      3.50454894610417
  H           0.18744754588835      0.68797685464827      3.53392284719180
  H          -1.18930592131224     -0.00861169164688      2.63621680127621
  F           3.28755275577414     -1.50053402173217      0.99942038786809
  F           1.62284266614490     -2.45326485036776     -0.00194231473730
  H           3.07421964467373     -1.50616879895238     -0.97819859478512
  F          -1.11461925988177     -2.15594882915579      7.23127565730667
  F          -0.68601611237050     -3.54571323568708      5.62108250878998
  H           0.73155634386219     -2.66517527751207      6.70230596338169
