20
Coordinates from ORCA-job NEB_product E -46.077570467180
  C           1.60940589309420     -0.69823902515463      2.36010083542175
  C           1.02865013939458      0.30241761639238      1.38442449882610
  C           1.93089366471548     -2.00337988375814      1.61776363180197
  H           2.55238484527613     -0.31331291433227      2.76271791739446
  Cl          1.18017323627110      1.94499892355584      1.98558831309440
  C           0.57922664118772     -0.84810201947525      3.50777069422838
  C          -0.82702002276951     -0.99568595871649      2.98433301531741
  C          -1.79382254712634     -0.14413054426075      3.26512622328973
  O           0.48972906719872      0.07906079260501      0.35699942171163
  C           0.91303674165317     -2.01916512165492      4.44632211188346
  H           0.63520788555545      0.05731050369174      4.12186911104559
  H          -1.01409349070575     -1.86747003685008      2.37475431383676
  H          -1.62934892542284      0.72378303363166      3.88238619899995
  H          -2.79145073432856     -0.28267947133872      2.88833030652467
  F           2.67142117778561     -1.72856889106535      0.52223983254503
  F           2.71064035829055     -2.79046534555300      2.39411321677100
  H           1.05180589453448     -2.58168068079957      1.30397582287363
  F           0.22589076753491     -1.86819477736395      5.60194941451000
  F           0.51931026756878     -3.20184643342339      3.92576053405616
  H           1.98145914029215     -2.09774976613011      4.69817458586793
