26
Coordinates from ORCA-job NEB_product E -43.579803908380
  C           2.64463402236251      0.44638947273428      1.13887822645526
  C           1.35331212730504      1.26052565411982      0.92356574366586
  C           2.24769665281241     -1.02062612519037      1.27844138513525
  H           3.25924320476167      0.49538080186017      0.23460471198162
  C           1.28899812316810      2.03681970436414     -0.36904285986081
  C           3.45560091775586      1.10355040123120      2.29592151483450
  C           2.62720619184359      1.46792724358596      3.49498067121379
  C           2.33938928469425      2.71167198931104      3.82815385580013
  O           0.47748276649711      1.27843376508002      1.74351464527951
  C           4.65614516834820      0.26780924794045      2.73907591690489
  H           3.83531358184923      2.03822384994914      1.86643774390763
  H           2.30114646111053      0.65150451929042      4.11930894682711
  H           2.65652091247804      3.55251606906199      3.23139933469697
  H           1.76732436559186      2.94543439520092      4.70860255137160
  Cl          1.48663142283239     -1.44350919456337      2.80665026444343
  Cl          1.06434177504163     -1.39079639002290     -0.03363065296496
  Cl          3.62909324321914     -2.11296951006192      1.00407554829150
  C           2.31774222536379      3.16723297728931     -0.40749714640513
  H           0.28505109959773      2.45407584789593     -0.45973634582140
  H           1.46301474251430      1.35189149402601     -1.20119807050256
  H           2.18100736538760      3.82966331686036      0.44352903017486
  H           2.18715749100309      3.74699619763277     -1.31760670397089
  H           3.33411578694188      2.78192955061620     -0.39332437799293
  H           4.33749194709592     -0.64182776213587      3.23914045511312
  H           5.24945470829661      0.85018555591628      3.44071821996020
  H           5.28428441212751      0.00466692800804      1.89203739146146
