30
Coordinates from ORCA-job NEB E -38.647776093930
  C           0.14094322833451     -0.95952249027904      0.35306479084945
  C          -0.94352634658339     -1.36569739087189     -0.41174764594797
  C          -0.09883475802022     -0.48929815181996      1.77261277995933
  H           1.04881016422646     -1.53034874245593      0.20217207698313
  O          -0.66492673262813     -2.22787379061853     -1.44415070156681
  C           0.46680581919416      0.73676782271359     -0.78864512817791
  C          -0.74420531302826      1.38578676303912     -0.62198246637526
  C          -1.91267824810522      0.76520192590779     -1.14037162549588
  O          -2.05940799250571     -0.72165087792152     -0.38876610714974
  C           1.78873961825611      1.32291380432217     -0.35020860741317
  H           0.57883392755272      0.15132134880575     -1.69701313311220
  H          -0.86918553182776      2.08886409364222      0.18677603825639
  H          -1.86401031634126      0.43109781167289     -2.17237540569984
  H          -2.86421712700146      1.21849021941808     -0.89412004208694
  C           1.12702539701416     -0.67496276673873      2.65826760520365
  H          -0.92787056619509     -1.06741771568197      2.18993204835057
  H          -0.41501066805211      0.55398805019766      1.78598830032092
  H           1.43321985193401     -1.71873595645608      2.67060079940607
  H           0.90087779987247     -0.37420218968584      3.67912487072645
  H           1.96088186450147     -0.07565958310703      2.30327981515089
  C          -1.70916396973725     -2.52242711242438     -2.35053017804949
  H          -1.62066688791134     -3.57714792865472     -2.60989825865151
  H          -1.60746975778613     -1.91809158685168     -3.25700775151308
  H          -2.68281226273332     -2.32930098786030     -1.89512502708807
  C           1.71420332933955      2.45149941418584      0.67103990665539
  H           2.27594243536176      1.70898266395657     -1.25253544940983
  H           2.43076892615614      0.52592094158564      0.02968766954039
  H           1.15382503410643      3.29283874060596      0.27133248684430
  H           2.71937361089207      2.79517282524564      0.90770389425129
  H           1.24373547171460      2.12349084612867      1.59289444523950
