30
Coordinates from ORCA-job NEB_product E -38.712882592740
  C           2.63167317288728      1.23610101099710     -0.98578405126113
  C           2.55182484246609      0.23756637466983     -2.12292260438170
  C           1.59289575319403      0.79312649385072      0.05964940728772
  H           3.63215455163542      1.17793731751216     -0.55050640355695
  O           3.70854169686047     -0.42416125414875     -2.27054779398655
  C           2.37458568246580      2.65140331061441     -1.54011153428663
  C           2.65101552899840      3.71442995563067     -0.51947947523539
  C           1.88785543306568      4.77604327142430     -0.33567095678164
  O           1.58171025076171      0.02709450904825     -2.80193364013238
  C           3.21167389219961      2.93728856590383     -2.80600084756253
  H           1.32242870588885      2.70663050380062     -1.83905166917985
  H           3.56281064869596      3.59481310936422      0.05009117081550
  H           0.97547834360113      4.92066738656502     -0.89120348179065
  H           2.13525270127267      5.54252057118203      0.37942025470498
  C           1.77944979814287      1.43975503731829      1.42545982972460
  H           1.66902753427207     -0.29177940289472      0.17586246105083
  H           0.59470718749127      1.01012472228722     -0.32400419093768
  H           2.77939344740822      1.24496607914736      1.80731903129026
  H           1.05979341538334      1.02749912671457      2.12904514849227
  H           1.63151810660219      2.51407304238365      1.37108630694682
  C           3.74614348999273     -1.40241347111215     -3.30038779080977
  H           4.73251410999941     -1.85662221515030     -3.25528411572002
  H           3.58408466313847     -0.93335294373607     -4.27294555016583
  H           2.96896040843234     -2.15191988731990     -3.13911292185344
  C           4.72043608358380      2.84005590949420     -2.60876555653440
  H           2.96268071920288      3.94600314087288     -3.14498559888111
  H           2.90560450507888      2.24400935560344     -3.59241312734965
  H           5.05748381116682      3.53525843544104     -1.84423587162547
  H           5.22730191021903      3.09008069721178     -3.53866881441544
  H           5.01589960589258      1.83350124732427     -2.32471761386475
