30
Coordinates from ORCA-job NEB_reactant E -38.674903430330
  C           2.07490173251191     -0.18682926742682      0.17183790465435
  C           2.06156095458118      0.20789254622534     -1.09872739095324
  C           1.15844698334622      0.32172374850977      1.23964487807413
  H           2.81257817137500     -0.91941230577357      0.45838399782386
  O           2.98156603415904     -0.31679934417527     -1.97106186727629
  C           2.98056865055587      3.68277633081334     -3.02118140793401
  C           2.81644446232107      2.85601998962068     -2.00155198487874
  C           1.47979246833560      2.48145298953005     -1.43763628837450
  O           1.16262195730157      1.09803166406123     -1.62429761479095
  C           4.28105266685988      4.08296620930108     -3.64607624066682
  H           2.10927450471163      4.14425138247550     -3.47230366338464
  H           3.65768334358722      2.36961446532066     -1.52844958059049
  H           0.67270360439255      3.01551193733374     -1.94470905142885
  H           1.45271201418850      2.71879182611524     -0.36500657560607
  C           1.91482233467020      1.13048141211530      2.29530951787153
  H           0.68240234822300     -0.53259514385066      1.72896636320573
  H           0.37129062976843      0.93013485497489      0.79201218546081
  H           2.68566184872001      0.51846589922780      2.75803911830701
  H           1.23408788333692      1.47468254846011      3.07083439611800
  H           2.39484526622398      1.99773692788919      1.84624375526396
  C           2.68472552128684     -0.21392512834342     -3.34860908378610
  H           3.46174120089701     -0.78134365926245     -3.85747254735178
  H           2.70543576829469      0.82642214186706     -3.68699227739801
  H           1.70434681134309     -0.64277758037070     -3.57251606935688
  C           5.51408447993696      3.41552282402497     -3.05179556284397
  H           4.37827050974844      5.17049591719922     -3.56227230506933
  H           4.22485867601909      3.85617882812449     -4.71602542514190
  H           5.62341814365219      3.67557803160502     -2.00171961757857
  H           6.40562074381688      3.74586422630793     -3.58006440585738
  H           5.44578028583507      2.33378572810031     -3.13850315651087
