22
Coordinates from ORCA-job NEB_product E -56.689700478650
  C           2.26847004081141      0.45253284891361     -2.10926400602675
  C           1.02047211739849     -0.34442915211176     -2.52370613326929
  N           2.02120682410614      0.76381684888778     -0.65198287686513
  H           3.16547520428424     -0.17381492765501     -2.15711177873233
  C           1.19472169256469     -1.86599464094040     -2.36142527002198
  C           2.41824103997660      1.74116589522216     -2.92401564525624
  C           3.46760046661777      2.66053855138139     -2.35037670191686
  C           3.25743988602684      3.94051308335889     -2.11574811785967
  O          -0.00425162418152      0.16925303723737     -2.84590388545835
  C           2.84102517798188      1.36870723232105     -4.34978561716782
  H           1.45179690307610      2.25338444546738     -2.98919809824631
  H           4.43105349795999      2.20251470817303     -2.17267382946054
  H           2.30184655987461      4.40303394459274     -2.29342605869918
  H           4.03513951299241      4.57190592777337     -1.72527998845454
  O           2.19233181116232     -0.16072431032776      0.09807840433472
  O           1.64707250935320      1.86302001878617     -0.37179072047656
  F           0.25159855450440     -2.53450486777411     -3.03699942264507
  F           2.39869474073120     -2.26446404894962     -2.82927451841045
  H           1.13616217086688     -2.14172780909354     -1.29134759185800
  F           4.05072396274282      0.79105928685107     -4.37187111911908
  F           2.00024336768788      0.50291174271041     -4.93123472519390
  F           2.90313558346166      2.44270218517576     -5.13716229919668
