22
Coordinates from ORCA-job NEB E -32.736469639750
  C           0.43725199613595     -0.67730520101916     -0.79705037583342
  C          -0.90778353762801     -0.99629209026578     -0.51697241211829
  N           1.49251132493133     -1.37983890539762     -0.19570503859536
  H           0.66620881753803     -0.31986273267716     -1.79459460276796
  C          -2.00757093749862     -0.42698968517700     -1.39258519644976
  C           0.45112054106777      1.00299922344120      0.26949364907739
  C           0.14451561313250      0.50793637824408      1.53857765715304
  C          -1.12903124859110     -0.02019376790446      1.78897308118838
  O          -1.22610437138912     -1.37212815188184      0.67124190386900
  C           1.82407574006767      1.55146656777886     -0.00129653761211
  H          -0.33944140871284      1.52404175868804     -0.26184956218046
  H           0.96633421128819      0.17795594879235      2.15818630241522
  H          -1.99223859636816      0.51455571204969      1.41113488048973
  H          -1.30478876821331     -0.51615231018532      2.73218317382537
  H           1.15702403153924     -1.96614159882231      0.55907486473252
  H           2.05760700179187     -1.89916188599583     -0.85089526154022
  F          -1.56797390866110     -0.18509762201397     -2.66974831003299
  H          -2.38313882224663      0.52959246975751     -0.99968803828339
  H          -2.83800290730549     -1.13732315087739     -1.45858409262877
  H           1.96709167299336      1.74177698395426     -1.06170970918535
  H           2.58357779827698      0.85310316648129      0.33929047889862
  H           1.94875575785150      2.49305889303055      0.53252314557882
