22
Coordinates from ORCA-job NEB_product E -32.766940180690
  C           2.16055670592881      1.88381153033558      0.03998633263962
  C           0.91680670924770      2.29456636831371     -0.75218898109942
  N           1.88272091586503      0.72098214620089      0.86654094606358
  H           2.97811506368352      1.62522966335923     -0.64223981404495
  C           1.13623887872965      2.37077834804860     -2.25618605977233
  C           2.59505131591850      3.05668676268466      0.94675866284825
  C           3.75702373755956      2.62622321862262      1.79031989096414
  C           3.75355022406990      2.61174129035252      3.10885686891301
  O          -0.14828679795265      2.48431936982289     -0.22926655244322
  C           2.96923847738068      4.28484877930124      0.11529211863075
  H           1.74921711608651      3.30759018569446      1.59447734439319
  H           4.63727661600450      2.32596100188119      1.23850300331344
  H           2.88644645943000      2.90536742245354      3.67729682599402
  H           4.61460147214211      2.30652605848711      3.67802905586015
  H           1.15405876535810      0.94388589893686      1.53705308606463
  H           1.55694299817447     -0.05538173008486      0.30055284810731
  F           0.01960874154676      2.78893812395696     -2.92043977820776
  H           1.39491435829554      1.37677247640325     -2.64181997925197
  H           1.94329090245476      3.07536343239769     -2.48688880391918
  H           3.76288823824198      4.04511920869240     -0.59004492738799
  H           3.32418658575990      5.07564830856201      0.77176496317324
  H           2.10765251607467      4.65882213557744     -0.43335705083851
