22
Coordinates from ORCA-job NEB_reactant E -32.766298269730
  C           1.60771492510885      0.00318962740512     -0.05505803449845
  C           1.35141283321828      1.31346030744260     -0.06403989484578
  N           1.85753698880803     -0.73895086540362      1.08917052659362
  H           1.69862607872332     -0.52700433447209     -0.99010989416647
  C           1.12889662255703      2.11491150697417     -1.32025920122360
  C           3.27280029897327      4.69071330000805      1.01940340959460
  C           3.24943506448209      3.37491410074708      0.88215448744810
  C           2.42308935124175      2.45723232214516      1.73223917060499
  O           1.20268088148902      2.05407300437821      1.10329312883002
  C           4.07048225847544      5.61994047160859      0.16905094280322
  H           2.68606564442597      5.15880066355709      1.79972133051915
  H           3.82989914542255      2.89495909678173      0.10455627558817
  H           2.09652975323401      2.96476731300058      2.64322907421499
  H           3.01300952919688      1.56912807422543      1.99657662244971
  H           1.49040073829221     -0.30978919339977      1.92793147900546
  H           1.61909601287168     -1.71595456724770      1.01589220098296
  F           1.20017656434684      1.33224237007453     -2.44462160665466
  H           1.88164605827548      2.90630498509256     -1.42880120415048
  H           0.13175735633987      2.57235564721873     -1.30444864013385
  H           4.63316928494837      5.07624029291266     -0.58570322059902
  H           4.76586047049610      6.18905921967221      0.78539394445368
  H           3.41191413907296      6.33330665727868     -0.32587089681636
