19
Coordinates from ORCA-job TS E -33.482995408850
  C          -0.97646436591015      0.64754856379225     -1.52463955149382
  C           0.36720479251055     -1.52409675566534     -0.24280586685381
  C          -0.95279057191151     -1.56855719772493     -0.55461477373240
  C          -1.61548683834481     -0.51128407394573     -1.21257860616079
  C          -0.42274642988904      1.24993019900722      0.61674227949013
  C           0.36196257460278      0.28694233766748      1.16555900566696
  H          -1.57265439224603     -2.34974999072765     -0.13706339147471
  H          -2.69300633036127     -0.55031718910150     -1.28413232644801
  Cl         -1.85719141589804      1.98366799377881     -2.16399184710988
  H           0.80898485358824     -2.30189220227537      0.35808648561167
  H           0.08057457120990      0.71407635744804     -1.71718383253117
  H           1.05678171488382     -0.94313216314629     -0.82655625623555
  H          -1.46658847399931      1.30564113591502      0.86276680260927
  H          -0.01507989994263     -0.40567827774664      1.89926595452363
  H           0.01853191467908      2.12227749666812      0.16801233658573
  C           1.85545020659987      0.45971940291007      1.18785951871165
  F           2.50375897172680     -0.69512769183077      1.47691725609795
  F           2.33904725091220      0.87788900397144     -0.01144831421529
  H           2.17971186778955      1.20214305100575      1.93980512695844
