19
Coordinates from ORCA-job NEB_product E -40.816020419600
  C           0.41711707480261     -1.61279981917528     -0.04009594953556
  C           0.75078995040255     -0.50485542219875      0.91573221372490
  C           1.68129637556354     -2.08539030040955     -0.75675451636009
  H          -0.26932240850577     -1.24346338351923     -0.80941714804849
  I          -0.93202155629543      0.83559107394508      1.20230344780190
  C          -0.40379755669161     -2.70137595436139      0.74063867136669
  C           0.45463920765709     -3.74196864824712      1.40631275681728
  C           0.67592743220558     -3.77941452747286      2.70711378210049
  O           1.74160752662827     -0.31844159795813      1.52393618816433
  N          -1.39435749901994     -3.23993325843898     -0.16975499738191
  H          -0.96128860315463     -2.16359804481601      1.51912233678762
  H           0.83776681114891     -4.51473897889832      0.75400195740654
  H           1.26252458525555     -4.55938895867714      3.16014877185120
  H           0.29241485871545     -3.02261540910600      3.37211955393292
  Cl          1.30886053483839     -3.38747931455549     -1.90466944285435
  Cl          2.31928239189301     -0.69996234611323     -1.70597199169608
  Cl          2.97101779040419     -2.63981073718950      0.32352568004027
  H          -0.96605533029705     -3.84453106190887     -0.86208201259511
  H          -2.08970158555071     -3.77362331089921      0.33669069847747
