17
Coordinates from ORCA-job NEB E -41.374255569430
  C           0.83276648596601      0.19375393466557      0.60938650304709
  C          -0.60188614911018      0.19879107211195      0.70723105512580
  I           1.58625921382961      2.26588560020489      0.34533502762203
  H           1.31186521110628     -0.14124986841806      1.52470135409426
  C          -1.29311275798781     -0.25242084812852      1.91595261264191
  C           1.26923011965461     -0.67613614687669     -0.60910287896426
  C           0.46407785194050     -0.33175475902645     -1.76707503718210
  C          -0.74417106747644      0.49892268925983     -1.60056261016383
  O          -1.37569151674772      0.47677705320028     -0.35939968251404
  Cl          3.05525399248914     -0.49241589077624     -0.95841025260064
  H           1.19141654625810     -1.71515240968449     -0.27589253763988
  H           0.94998006907612     -0.24696106718586     -2.72498380777618
  H          -1.52363067839201      0.23013186122329     -2.32120067579954
  H          -0.45398864792633      1.54293144459740     -1.82715717618890
  Cl         -1.01373611189933     -2.07364541209244      2.12132537104571
  Cl         -0.62934078104916      0.50639622325011      3.38484657912613
  Cl         -3.02529177973138      0.01614652367544      1.83500615612645
