17
Coordinates from ORCA-job NEB_product E -41.425830717690
  C           2.15406668794841     -2.00946481863269     -0.56011236462601
  C           0.84020523899882     -2.55550431678498     -0.07457362421777
  I           1.78081423325070      0.11761971836208     -0.69145995058291
  H           2.95739474868203     -2.13909914137132      0.16294723648345
  C           0.76358410248591     -2.81654218176540      1.43754356404946
  C           2.52563069764095     -2.55723799042126     -1.92519495007087
  C           3.75153058526796     -1.93467552128332     -2.49767899490424
  C           3.80760298989034     -1.43046182811333     -3.71677393826561
  O          -0.08185715801720     -2.81618734308885     -0.78812742581859
  Cl          2.83277089537601     -4.32071648655546     -1.66651826727449
  H           1.67594444132124     -2.48910800753233     -2.60945770917517
  H           4.61591994880730     -1.93502529931975     -1.84823189884967
  H           2.95342758631273     -1.43314802969151     -4.37333183547995
  H           4.70959575708768     -0.98932864502570     -4.10224095285885
  Cl          1.67045898568238     -4.34795984965335      1.63817234243676
  Cl          1.52815778976297     -1.55620933639143      2.41154924254452
  Cl         -0.90924753049824     -3.03815092273139      1.94948952660994
