31
Coordinates from ORCA-job P E -44.466269238580
  C          -1.46998787462339      0.36755384501613     -2.29199951258327
  C          -0.42007333599913     -1.76772167312762     -0.94505319039503
  C          -1.80859190878456     -1.87535209460521     -1.48461907334984
  C          -2.31694192144845     -0.86507525492902     -2.17068871230477
  C          -0.98221791081256      0.72152358922532     -0.87892608532492
  C          -0.15881886347733     -0.41562950873596     -0.24123124543328
  H          -2.35855010600191     -2.78968382657305     -1.33025035879097
  H          -3.30697036277331     -0.88276677453098     -2.59784118409956
  C          -2.21515043910628      1.50775055371943     -2.95095979157900
  H          -0.22128069550103     -2.58486925392845     -0.25395899437755
  H          -0.59438532033270      0.15254008215966     -2.92119545851160
  H           0.26986074361860     -1.87053825572328     -1.78795839912775
  H          -1.86163183259353      0.91321628090276     -0.25955904376543
  H          -0.51554263138979     -0.52567870992421      0.78822456906738
  H          -0.39618788694779      1.63889788817831     -0.90842355235212
  C           1.35577879645261     -0.08567657848912     -0.13674453944006
  Br         -3.81089221139102      2.02388259479557     -1.95131092478564
  Br         -1.07953796840201      3.09227887964596     -3.13544321797412
  Br         -2.77913395815889      0.99924009715132     -4.76240957940128
  C           1.55363946162529      1.07172050668806      0.85055407119668
  C           2.11106365586270     -1.29832037864411      0.42198782380765
  C           1.97085116641655      0.29884302296713     -1.48506319480523
  H           1.15312438749149      0.81184519482583      1.82794622526608
  H           1.06735407320379      1.98383255033739      0.51579389562723
  H           2.61375212629476      1.28579267454020      0.96363197478355
  H           1.64604312592043     -1.65156614838175      1.33970965076227
  H           3.13748502285256     -1.01985553789869      0.64947297683584
  H           2.13974540585434     -2.11700831125017     -0.29139665667810
  H           1.53635161144085      1.21305589830738     -1.88130335658816
  H           1.84774517736528     -0.49317762924118     -2.22032278817015
  H           3.03778047334443      0.46959627752235     -1.36173232750887
