31
Coordinates from ORCA-job R E -44.375873091540
  C          -1.69741616823286      0.01903294506862     -2.86427898901512
  C          -0.82130379538728     -2.84148246305845     -2.48776105734637
  C          -1.98464326555661     -2.32067675177144     -2.10795155818657
  C          -2.39418529753192     -0.93719294713362     -2.24866160508838
  C          -0.93311977277868      0.91101470527339      0.48733198476109
  C           0.01397240998000      0.05306008285503      0.15860438112250
  H          -2.71675176833412     -2.95952600723059     -1.63257315135332
  H          -3.35151557165515     -0.69470375808280     -1.80559676378050
  C          -2.12333024821976      1.41706617610935     -3.03310761048978
  H          -0.60212869587845     -3.88400170624773     -2.33711401733194
  H          -0.74422787393312     -0.19337280890266     -3.32919599290027
  H          -0.04874274918914     -2.25808929243666     -2.95795771506802
  H          -1.97368321786587      0.62876577082975      0.47844534594741
  H          -0.26087029824192     -0.95444760896033     -0.13492356206497
  H          -0.72477087708554      1.92282494735669      0.78777925982101
  C           1.50210359395408      0.28656036707947      0.15424310855437
  Br         -3.66053752850405      1.94973448456239     -1.98286762311909
  Br         -0.65840346609832      2.64288024307213     -2.59015153454350
  Br         -2.57487668094433      1.72824112376203     -4.95537917917756
  C           1.87913875986901      1.71679974002523      0.53635787235807
  C           2.12627192106328     -0.69346830992318      1.15822290484894
  C           2.03859618913052     -0.02095824226287     -1.24927467324306
  H           1.53504248884854      1.95005639644350      1.54077414759401
  H           1.44159993775552      2.42780734613185     -0.16069372390797
  H           2.95983777231031      1.83456781836767      0.50906617734740
  H           1.72459651203920     -0.51966983632979      2.15383547529318
  H           3.20565142539561     -0.56270149955413      1.18972929455383
  H           1.91117304396448     -1.72260224432030      0.87623288720792
  H           1.64241581137763      0.69009951895869     -1.97061066181668
  H           1.75274863380805     -1.02614600020805     -1.55276569583895
  H           3.12363877594088      0.04866781052680     -1.26369772513770
