31
Coordinates from ORCA-job TS E -44.357895266380
  C          -1.60526128502546      0.22999352324998     -1.61186970965322
  C          -0.51212176167072     -2.00776871117537     -0.21879040749617
  C          -1.84066842465206     -1.89498479346076     -0.47644350108283
  C          -2.38197717016269     -0.81585348921521     -1.19746658434136
  C          -0.89453177729529      0.87166945377026      0.47789133158714
  C          -0.06863661683731     -0.07608431700065      0.99206494269395
  H          -2.53900425472840     -2.54942678157144      0.02523753645390
  H          -3.45943567836045     -0.72219357723486     -1.23499753854065
  C          -2.19919878911757      1.40176104436488     -2.28401895382211
  H          -0.16260717884448     -2.79310645758460      0.42968490660376
  H          -0.55786769827218      0.08831635818746     -1.82542014044257
  H           0.22299553459976     -1.57717143261120     -0.87036469471450
  H          -1.91980000502093      0.92870438870656      0.80135188401919
  H          -0.44819228192780     -0.72052553992524      1.77139077983932
  H          -0.49409924138311      1.75217537714308      0.00775327233315
  C           1.44308930947093      0.06813525932700      0.97063594998768
  Br         -3.73840394936135      2.13508970155494     -1.33273111074981
  Br         -0.90371849379858      2.83826748546708     -2.52562038104364
  Br         -2.83481280745880      0.90465654482532     -4.12745300798183
  C           1.77040466487504      1.14708698307549      2.02030944463416
  C           2.13974797663834     -1.22822690146401      1.39469552628927
  C           1.99892463213004      0.52137940430712     -0.38202482974439
  H           1.38867877027741      0.85715486349045      2.99666360269370
  H           1.32223009957248      2.09876427012272      1.74706135610415
  H           2.84690581321751      1.28170418847706      2.09772357504536
  H           1.70897897445015     -1.61272050683191      2.31660102220948
  H           3.19687477979145     -1.03954215651082      1.56884564075861
  H           2.06068740319916     -1.99367009358212      0.62820869047581
  H           1.55320005942351      1.45805805672220     -0.70552877740154
  H           1.83537775161605     -0.22835399483086     -1.15342426446977
  H           3.07224164465534      0.67671185020742     -0.29996556024423
