23
Coordinates from ORCA-job NEB E -43.115075672870
  C          -0.07616108748130      0.71258243937851     -0.29682411351447
  C           2.52990736243742     -1.56687326584264     -1.18614411052774
  C          -0.12024929814224      0.29194662866672     -1.55116579202988
  H           0.73654855723225      1.36653962246421     -0.00383561420820
  C           3.36105070709851     -0.81223785576299     -0.30614240876510
  C          -0.97871172154001      0.32056576460904      0.84881333028347
  C          -2.33386086938883     -0.15125573681949      0.46337065619012
  C          -3.28186217965807      0.73362864772294      0.13373873114037
  O           1.67701817360290     -2.16723137823752     -1.67896376253964
  C          -0.20297902991984     -0.66482641477013      1.74632857849933
  H          -1.10479684287042      1.23888126383094      1.43397191394331
  H          -2.60718001614965     -1.18714234922937      0.51571546465347
  H          -3.06231790260780      1.78231021952364      0.07425476645002
  H          -4.27286212646801      0.41806633632452     -0.09939634912805
  Br         -1.01073050691311      4.41601967396005     -0.41590212913641
  Br          1.19590307704307      0.93635587636713     -2.77565377207903
  Br         -1.35401943212471     -0.88910383199143     -2.37802686831574
  H           3.07268823083975     -0.96236636239997      0.74113429401690
  H           3.25144423859675      0.24450989994353     -0.55209987398812
  H           4.37072533600767     -1.11041806910484     -0.48322546979654
  F           0.55038949098928     -1.55114173890362      1.00072320535264
  H          -0.84189094630105     -1.27923795677823      2.38699826807017
  H           0.50194678571747     -0.11957141295099      2.38233105542911
