23
Coordinates from ORCA-job NEB_product E -43.213028899290
  C           1.27267983275787     -0.69900316203666      1.87887994953515
  C           2.62367018969548     -0.85801530315894      2.61907929978398
  C           1.27457959440072     -1.06060684539554      0.40436429094410
  H           1.08881272395710      0.38606536529835      1.88706942589840
  C           3.52255522324030     -2.01137859430558      2.29838948546102
  C           0.15822311274169     -1.30742197921151      2.79820443585046
  C          -1.12185325202809     -1.66375182211628      2.09434609883422
  C          -2.26535168723304     -1.04227347561950      2.31336097549017
  O           2.87985839081933     -0.05162572624485      3.47511615080781
  C           0.58905559911219     -2.51444897616101      3.64418241603129
  H          -0.05825141845446     -0.52452435676296      3.53404355790667
  H          -1.08180448497973     -2.52877436814705      1.44687773688819
  H          -2.33545427625347     -0.19156222838641      2.97140634649409
  H          -3.17409646788875     -1.34828928393088      1.82632080985111
  Br         -0.29756653310179     -0.29980826497537     -0.51008542754480
  Br          2.80883056099113     -0.16448376314837     -0.46222681404082
  Br          1.34964410718008     -2.94006716367494     -0.05570859429235
  H           4.30649631241795     -2.05629785156071      3.05179664777799
  H           3.99808949909143     -1.87218146166275      1.32925179064916
  H           2.98420328997598     -2.95476130554949      2.27144400098575
  F           0.87752867591016     -3.61586296892839      2.88171783715257
  H          -0.24037855311746     -2.79894272966905      4.29979482250409
  H           1.47542956076536     -2.29888373465210      4.24837475703173
