23
Coordinates from ORCA-job NEB_reactant E -43.219094229060
  C           1.37902242465353     -0.49786655217485      0.17569472940917
  C           2.02165104128614     -1.30010046906008      1.04660711425390
  C           1.97754341512975      0.13322338901351     -1.00498976356818
  H           0.33891812404308     -0.25664289237268      0.33093596487055
  C           3.45673904283494     -1.70737543573803      0.95228335600357
  C          -0.86461364489892     -1.86736117820234      4.69887527626707
  C          -0.27694668944225     -2.39070310911580      3.63712667409152
  C           0.07072830845021     -1.61659397472810      2.40544826839748
  O           1.44193447907816     -1.85134935979714      2.12248327726830
  C          -1.23246838601552     -2.63701229888382      5.92562656379953
  H          -1.13504089696394     -0.82120080596654      4.74099343365414
  H          -0.00568085975211     -3.43592836607008      3.61571752286138
  H          -0.10885605513702     -0.54444905437173      2.55658627275500
  H          -0.54332535014309     -1.96810329670585      1.56271810241627
  Br          0.62794190830296      1.12107508349906     -2.01193892688827
  Br          3.40745300376665      1.45665028004261     -0.54637077065978
  Br          2.79597547782275     -1.14660737192679     -2.27573512766974
  H           3.73679496962712     -2.19627558692648      1.88143030416451
  H           4.10603652787822     -0.85072037979923      0.78790203381713
  H           3.60204372598387     -2.41014446085027      0.13303290481718
  F          -0.90367865959967     -3.96251800565017      5.82240111117057
  H          -2.31405856239379     -2.59049813592098      6.10560586926593
  H          -0.70401334451108     -2.24499801829421      6.80386580950277
