20
Coordinates from ORCA-job NEB_reactant E -45.690585838990
  C           1.81070978098606     -0.19011973008340      0.03515285060388
  C           2.72810241882697     -1.03050858804110     -0.42632984926921
  C           0.62780405524045      0.24037555013401     -0.76569752573194
  H           1.95234676554928      0.25073293726934      1.00727112422490
  F           3.77241210631224     -1.37550073784615      0.35640920592452
  C           2.94277377235651     -5.11011333085560     -1.77005780700980
  C           3.10648453665282     -3.94287405660477     -1.16878316197258
  C           3.57819039393637     -2.70856176667677     -1.87596622249420
  O           2.72234701131522     -1.59885005207361     -1.63620204855368
  C           2.49994838621411     -6.36672906325392     -1.11257704111201
  H           3.14542260845917     -5.23047094088326     -2.82538465365188
  H           2.90136257710655     -3.82639179029651     -0.11362149310675
  H           3.56402112161416     -2.84153543654152     -2.95888261570504
  H           4.60217179794478     -2.47501098226778     -1.55392675494784
  F           0.71965011501313      1.58042023768554     -1.08255215841859
  H          -0.30058591423339      0.13018354321910     -0.19401846197225
  H           0.56887490638728     -0.30450659815547     -1.71123424450320
  Cl          1.04403091282218     -6.98302642273648     -1.94984588634093
  Cl          3.79272816587418     -7.59580068343553     -1.27011949768408
  Cl          2.11630448162193     -6.18281208855613      0.60276624172068
