20
Coordinates from ORCA-job NEB_product E -45.712172575140
  C           2.06655148493877     -2.24404266081626     -0.15606784031637
  C           0.63310795674781     -2.46842173749699      0.25553515808258
  C           2.12215298808461     -0.81955270369766     -0.73635792490489
  H           2.72141743309026     -2.27983483692992      0.71949962171549
  F           0.46926331955494     -2.29026006567164      1.58992174427327
  C           2.49003316738490     -3.30794383910869     -1.19230757543685
  C           3.68674927104157     -2.87931089053206     -1.99722786885715
  C           3.66123808882549     -2.74502143774117     -3.30887537555800
  O          -0.30431236880958     -2.66837614217567     -0.43182522942104
  C           2.79169591508540     -4.63581669842548     -0.48987890112384
  H           1.64304621956224     -3.48270623083125     -1.86674062929831
  H           4.58341452146816     -2.67695568272124     -1.43172715213703
  H           2.77284089013125     -2.94040489537600     -3.88736515715326
  H           4.53210756178371     -2.43427692775453     -3.85806977846087
  F           3.41258533181431     -0.37768030878789     -0.79207604735466
  H           1.58032217506213     -0.11798823605475     -0.09247544578213
  H           1.72077005300126     -0.78890842181699     -1.75347038676073
  Cl          3.13660604662400     -5.88629189906830     -1.70224388879786
  Cl          4.19436189227330     -4.50169296777995      0.59388757720133
  Cl          1.39354805233547     -5.16591341721357      0.48796510009032
