25
Coordinates from ORCA-job NEB_reactant E -49.436717927500
  C           1.74772187374602      0.04588368660671     -0.20107955028053
  C           1.58287065110619      0.48829498856673     -1.44487753503059
  C           1.87672226112058      0.92759768034401      0.99327183424210
  H           1.82877856375297     -1.01579583882590     -0.01626860293649
  C           1.44431101986688     -0.42738143187172     -2.62899719580941
  C          -0.39371161540885      4.73684009392450     -2.50227385711422
  C           0.38713717505465      3.87400421995733     -1.86567176882962
  C           0.25066419375160      2.39388828278635     -1.93166578347534
  O           1.54182776044099      1.82538100891461     -1.75268171902269
  N          -0.20345504635773      6.15239533401632     -2.35251264738756
  H          -1.20834158239177      4.47804240239267     -3.16113815355184
  H           1.19333175989811      4.24690296160978     -1.24551112355828
  H          -0.19070537595991      2.09044268095889     -2.89015799354609
  H          -0.41890072770502      2.06037366253504     -1.12307693620843
  C           3.14181466384421      0.58979931606283      1.78034242532866
  H           1.00476632133846      0.76953502487767      1.63544171399750
  H           1.89678670400767      1.97326344037376      0.68448132400852
  H           3.12646646055150     -0.44767773782041      2.10576429730614
  H           3.21489620705668      1.22701502125458      2.65735930738687
  H           4.02384665649537      0.74655487031138      1.16444504975207
  Br          2.49112839569955     -2.05552131811562     -2.47126132584935
  Br         -0.46247633377508     -0.97551765475880     -2.83053154468967
  Br          1.98458529815970      0.48798252502702     -4.25724971682455
  O           0.65800424791994      6.53894399702592     -1.59485611845003
  O          -0.93376953221267      6.86525278384637     -3.00389437945718
