22
Coordinates from ORCA-job P E -40.608784364660
  C          -1.33517056743345      0.38442887845770     -2.38124449782942
  C          -0.01917749646691     -1.67247012415499     -1.16742159913100
  C          -1.35390357669814     -1.95554791850223     -1.77375355611956
  C          -2.00199096900082     -0.96154127741666     -2.35894349350661
  C          -0.85299603927434      0.74442348284493     -0.96175534287687
  C          -0.10324808704212     -0.41641878230251     -0.28002820044533
  H          -1.76156838394479     -2.95118197890524     -1.71403992742127
  H          -2.97299097506019     -1.07311258661027     -2.81010206490641
  C          -2.24988301456089      1.45789261408229     -2.95218539001721
  H           0.33852239384291     -2.51178375317012     -0.57276420158917
  H          -0.45730143986187      0.33500554184545     -3.03873845474086
  H           0.70852068843862     -1.49260113807209     -1.96554308928503
  H          -1.72515188799325      1.01280167027358     -0.36601427611122
  H          -0.63689854869504     -0.69859863062867      0.63221459594837
  H          -0.20728295783617      1.62124614868460     -1.02099996985873
  C           1.29925287277258      0.02978686538370      0.12953715039934
  Cl         -3.74422522628118      1.61089675384592     -2.00442774862501
  Cl         -1.44223008019830      3.04435157808720     -2.97786736185681
  Cl         -2.69522345353261      1.05479634674594     -4.63026245111945
  F           1.93215831330426     -0.96552956624296      0.83278529485368
  H           1.26472085195556      0.90314388376555      0.78900715893401
  H           1.92445758356616      0.24363199198889     -0.74414257469543
