30
Coordinates from ORCA-job R E -37.243148034190
  C          -1.02816438016206     -0.20548482544039     -2.81830623293095
  C           0.73225974276167     -2.27113455586706     -1.50067434666916
  C          -0.57476763953388     -2.37502670100129     -1.74456905010036
  C          -1.45510048003770     -1.35956568828950     -2.26744088539154
  C          -2.55878016448974      0.38229778059646      0.71810567373776
  C          -1.29622439392182      0.48592954315342      0.37009127829354
  H          -1.06288045032738     -3.31483735372549     -1.51173462450364
  H          -2.50961033125706     -1.58222488273924     -2.19586041188261
  N          -1.76516096795778      0.85688280199247     -3.23933612168665
  H           1.29701046885662     -3.10126720914227     -1.11307634442414
  H           0.03711201843694     -0.05623072514640     -2.93233600692066
  H           1.28901955234214     -1.36736889162588     -1.68290604153334
  H          -2.96768699144684     -0.57701027008892      0.99045681065861
  H          -0.60930837350366     -0.34072770499308      0.32567948830740
  H          -3.23155492461261      1.22265704282840      0.74865122059344
  I          -0.40859232624104      2.31304539020584     -0.17655066704150
  C          -3.21039923289515      0.85845339659343     -3.11871624698241
  C          -3.75463060538457      2.26714294079000     -2.88492978564195
  C          -3.87962971574188      0.20971958377835     -4.33595981847623
  C          -1.15131286126978      1.86305306811698     -4.06936848448071
  H          -3.44435765118745      0.26158986430188     -2.23019007015400
  H          -3.66975858460152      2.87866186889371     -3.77912132790182
  H          -3.21837328955171      2.75249216243492     -2.07323059992668
  H          -4.80586611536671      2.20573716544899     -2.61462908735421
  H          -3.71007692615841      0.80483554342905     -5.23025076834829
  H          -4.95156238182541      0.12846920898600     -4.17625168063791
  H          -3.47344249949290     -0.78561030458822     -4.49947841799955
  H          -0.08916548493542      1.65363833555923     -4.17175157598202
  H          -1.25914007292558      2.85426022387971     -3.62341565333681
  H          -1.59378493756932      1.87756319165891     -5.06987022128364
