30
Coordinates from ORCA-job TS E -37.226203021960
  C           0.69003380948247     -0.33821413304458     -0.26144839001659
  C           2.29558106776107     -1.99415782367334      1.46413054171659
  C           1.17752779858369     -2.45665651328013      0.82369371039073
  C           0.38119603862286     -1.65418327517145     -0.00349369810479
  C           0.53307783909994      0.27162680038185      2.04686704238907
  C           1.38940642282729     -0.50213170248311      2.76421759521265
  H           0.77027072929540     -3.41698097112160      1.11260699533229
  H          -0.56816969543074     -2.06022503918775     -0.32157563359718
  N          -0.08149379778072      0.55320298823523     -0.93037754023679
  H           2.83001795040236     -2.64747054560286      2.13696266240655
  H           1.71343340048733     -0.01664565875069     -0.14072912825486
  H           2.90193602982395     -1.22926674852758      1.01056640590671
  H          -0.50477860000696      0.00177555715056      1.97986486037441
  H           1.03565044727664     -1.28948648465339      3.40679985462397
  H           0.80277151002990      1.25357337811155      1.71102173298495
  I           3.18421733407681      0.37151809949111      3.52568987710075
  C          -1.51218385309588      0.35871971611094     -1.09155071224307
  C          -2.32362970653634      1.56382363595206     -0.60958863109726
  C          -1.84649937304738      0.01466931115871     -2.54579236276070
  C           0.46691502000529      1.83677393904328     -1.28430746908114
  H          -1.78754526251568     -0.49393034817505     -0.46342251340461
  H          -2.18956916041668      2.42375931956053     -1.25977607212037
  H          -2.03412965577348      1.83730492843967      0.40256975855134
  H          -3.37959400813229      1.30550399235896     -0.60365991975979
  H          -1.62856626703799      0.85327477325440     -3.20271367180377
  H          -2.90151339485024     -0.22845483594904     -2.63999855113557
  H          -1.26001033760792     -0.84152399115769     -2.87026049729550
  H           1.54702507639801      1.76295145431951     -1.40152897050795
  H           0.24906648214321      2.59155977379893     -0.52015825852535
  H           0.04955615591607      2.16929040341092     -2.23460901704471
