17
Coordinates from ORCA-job NEB_reactant E -40.003892115980
  C           2.44164787216423      0.51438356921897      0.37144092462097
  C           1.69314007932745      1.16925980942529     -0.50589116496178
  I           2.62468761705238      0.98581963647723      2.40434084633604
  H           2.99128259306452     -0.36262964318486      0.08542554414382
  Cl          1.62806629491726      0.51985662959330     -2.12857002513727
  C           3.92670913931487      3.92083466602398      0.45928500590833
  C           2.90583134112399      3.66366147600559     -0.34230628725666
  C           1.50842491038446      3.45948336685689      0.14640296874533
  O           0.93224029681125      2.26733521437971     -0.39118292501089
  C           5.33849707668343      4.07479156130268      0.04880190387472
  H           3.78223911645617      4.01547206942160      1.52942278215064
  H           3.03480213121101      3.55302947872044     -1.41137543319555
  H           0.85867637936830      4.25815039860315     -0.22688326116798
  H           1.46593850462290      3.45307946734494      1.24063588396662
  Br          6.05829409930394      5.76457504449314      0.75832410664602
  Br          6.37781185882652      2.58889977610666      0.83670683713451
  Br          5.63761068936730      4.05399747921131     -1.86847770679688
