17
Coordinates from ORCA-job NEB_product E -40.023057224770
  C           3.19491878402746      1.64944787887403     -0.51277167850997
  C           1.85269562005920      1.50530158532728     -1.17281974617593
  I           3.13953782143939      0.17148900578999      1.07552557555958
  H           3.98016812218828      1.30274873000734     -1.18708074786109
  Cl          1.76045716222725      0.07276838948564     -2.18246664522401
  C           3.42482668505135      3.09518426245792     -0.03983906630547
  C           2.97840007048325      3.33747442291176      1.37843711825102
  C           1.80857778455760      3.86512460228856      1.68436337094277
  O           0.92829947231564      2.23854358809971     -1.05716463891048
  C           4.87384485831655      3.52577304858479     -0.22113464621355
  H           2.81763048363135      3.73567352400452     -0.69661080580257
  H           3.67775189935821      3.04327632901270      2.15013984048862
  H           1.09877881447153      4.15789021192486      0.92868586363479
  H           1.51323271429150      4.00691105709602      2.70874963751607
  Br          5.08490760765682      5.37104730464077      0.39013873011808
  Br          6.11856793920938      2.40709166395586      0.77103210488986
  Br          5.38590416071522      3.46745439553825     -2.12048426639773
