19
Coordinates from ORCA-job NEB_reactant E -30.083171675780
  C           1.77609700166446      0.18234304194041     -0.07899787297647
  C           1.45423284449829      1.40468403232885     -0.50102604377087
  O           2.17872140176943     -0.16379368488978      1.20465389274228
  H           1.73033405264376     -0.63075141574328     -0.78861170025239
  C           1.02217120752595      1.62961429825345     -1.92337361942280
  C           4.17784970504815      3.76007896385946      1.69577987876378
  C           3.45153430305779      2.67002399429778      1.49914489075697
  C           1.95391068162764      2.66570631449543      1.49822905324518
  O           1.41469052271876      2.58452752924812      0.18581703738053
  O           5.53064342526122      3.82377620363876      1.69537962427972
  H           3.74074576851668      4.72700383923228      1.89889698965668
  H           3.92739386843127      1.72133899662321      1.29099265295349
  H           1.57329260330076      3.61423689887364      1.88604120699461
  H           1.57917840558675      1.84161926386508      2.11202976067325
  H           2.42316515388200     -1.09244313868480      1.21270168571513
  H           1.71954764270857      2.30547632471073     -2.41518949786476
  H           0.04184254416296      2.10149602204055     -1.93336604255153
  H           0.97791029038895      0.69563003465628     -2.47337608098579
  H           5.89563857720661      2.94973248125383      1.50637418466299
