19
Coordinates from ORCA-job NEB_product E -30.081737904110
  C           2.88239506205665      1.00196368482734     -0.18776548258305
  C           1.38740762452185      1.22423246955567     -0.43135318448116
  O           3.08099551491134     -0.24917275924121      0.40597153384489
  H           3.43599312873552      1.06204126434618     -1.13937357490949
  C           1.06923155060924      1.86467396042262     -1.75612156972091
  C           3.41045874339576      2.13356148968797      0.73237419283995
  C           2.62894531438320      2.19073616346339      2.01172466344255
  C           2.01263984422962      3.27350653073687      2.44440252494778
  O           0.55360166611133      0.92493075985947      0.37783629968955
  O           4.77501758771575      1.81154227350778      0.96715148355014
  H           3.33916354877947      3.09398946530658      0.19755348638553
  H           2.60321164675115      1.26525835349159      2.56837520886731
  H           2.02484768965357      4.19714635347351      1.88743589937865
  H           1.45861187303352      3.27871917860161      3.36645147348493
  H           3.96309643296983     -0.23286015563487      0.80256393582725
  H           1.70818444417069      2.72885066140662     -1.92136787872523
  H           0.02366170629085      2.15804925442411     -1.78796215104520
  H           1.26265628314419      1.14366598916225     -2.54826826681815
  H           5.11418033853645      2.39036506260252      1.65767140602465
