19
Coordinates from ORCA-job NEB E -47.950760786360
  C          -0.33835685272156      0.17132697240839     -0.19743435606903
  C           1.25448811427594      0.10641973041254      1.82762147227587
  C           0.41228825507544      1.23261736088649     -0.89596977825714
  H           0.27419921134092      0.30200663092597      1.23901008323245
  N           1.69312690289343      1.37814438217232      2.56612216078512
  C          -0.23842874064442     -1.20332995316133     -0.58198467343059
  C          -1.45786995388272     -1.13085474844406     -1.48959603928318
  C          -2.69838687406077     -1.23814636175761     -1.03926691955660
  O           1.79643393384124     -0.92752365119303      1.96901148904322
  Br          1.34828290562919     -1.94650053244656     -1.59149742848227
  H          -0.39235852891849     -1.90284931091469      0.23643355032682
  H          -1.23926525556277     -1.00151507755021     -2.53794833962263
  H          -2.92220329639842     -1.33285508598036      0.00969708994671
  H          -3.53395664003089     -1.24729326893222     -1.71776722864026
  Cl          0.37039012005022      1.13416437489358     -2.66692176837670
  Cl         -0.17908453838940      2.84756563663338     -0.41930466525378
  Cl          2.18363266877384      1.15223235046830     -0.37323857471367
  O           2.70383786774101      1.28056889378442      3.20094549845555
  O           0.96323070098819      2.32582165779470      2.46208842762013
