19
Coordinates from ORCA-job NEB_reactant E -48.089139271800
  C           2.36043265654310     -0.34522189020003     -0.23111764074202
  C           1.79641987368672     -1.29026580438704      0.53001759794429
  C           1.79662178328527      0.36853965881916     -1.40160812493126
  H           3.35624752974848     -0.03696032151207      0.06422171389761
  N           2.61563122079192     -1.75482338641990      1.69848222855491
  C           0.67701969263450     -4.87300861090598     -1.03761703889976
  C           0.96457170340141     -3.59042486985092     -1.17657924040084
  C           0.07855561096721     -2.50204901852631     -0.65292514664904
  O           0.63601268352770     -1.92518325171055      0.53545428528483
  Br          1.79562985766545     -6.23898345060468     -1.68848230741841
  H          -0.21835609582417     -5.24007685744924     -0.56103695509953
  H           1.88172655597622     -3.27366469720546     -1.65325165388702
  H          -0.88106776686303     -2.89975939679875     -0.31887951007831
  H          -0.08322279108642     -1.73939966834637     -1.41870935612849
  Cl          1.91307045212496     -0.64374882149569     -2.88550188045197
  Cl          0.08713451249645      0.82317093080729     -1.15237745691734
  Cl          2.71916832045119      1.86057769188772     -1.69826288912080
  O           2.21587603787386     -2.73637125092413      2.26192917229295
  O           3.60272816259917     -1.12054698517706      1.97184420275021
