19
Coordinates from ORCA-job NEB_product E -48.088996856040
  C           1.87468987474839     -1.30432852200589     -0.22215755522026
  C           3.10599851206276     -1.54547898319919      0.63369418766171
  C           2.27492458612172     -0.64294908374294     -1.54240800535610
  H           1.22840660273849     -0.59464345468475      0.31173781530460
  N           2.73067278587392     -1.91561199806826      2.08995720919270
  C           1.09976584482357     -2.63960294254260     -0.33401469059309
  C           0.26521489385696     -2.85853245521732     -1.54570327761085
  C          -1.04644742229197     -3.00286099227333     -1.47705642599221
  O           4.25216041223624     -1.44517934199000      0.37424331518821
  Br          2.42122602226187     -4.13928537210350     -0.19775348021308
  H           0.49123683841264     -2.74853485299911      0.56714145943415
  H           0.79176250366037     -2.95816847512288     -2.48257009279199
  H          -1.58226928436598     -2.92760700144473     -0.54512303127879
  H          -1.63482424378575     -3.18895740189255     -2.35760857764269
  Cl          0.81965701850256     -0.12403058440877     -2.43206459527919
  Cl          3.21904743321444      0.83664650171938     -1.19012483020475
  Cl          3.24654706108983     -1.71665289394877     -2.55914298577433
  O           3.64405026833177     -2.23505265541914      2.79143145586262
  O           1.56388029250816     -1.81736949065566      2.39192210531336
