21
Coordinates from ORCA-job NEB_product E -38.078661557360
  C           2.70088930985012     -0.93261461121036     -0.94657477540274
  C           1.41663285837320     -1.01337477015903     -0.14148760134625
  C           2.92163685342548      0.50511728136318     -1.43138319443065
  H           3.53845816006894     -1.15300508363924     -0.27140509490076
  C           1.18860429536728     -2.33909729889239      0.41456327319767
  C           2.67405898664184     -2.03102591497548     -2.04824322489487
  C           1.36837158673088     -2.00714869034018     -2.79685608889158
  C           0.46767686754270     -2.96868827944197     -2.72333805111971
  O           0.66028305502977     -0.10009629283794      0.05287369452850
  C           3.85660166140955     -1.89053860135457     -3.00575527435783
  H           2.75639942968932     -2.99329037538135     -1.52865742893221
  H           1.20136165527920     -1.14536802482762     -3.42614547632470
  H           0.61108864642780     -3.84314080312789     -2.10882054005932
  H          -0.45362078212943     -2.92343754355903     -3.27763691227462
  F           4.24477764805998      0.74406741253712     -1.60575626736072
  F           2.33384816631543      0.77195688964740     -2.61522679064539
  H           2.54255826476753      1.23871600697453     -0.70131134477533
  N           1.01049517225856     -3.36866508824009      0.88018213412951
  H           4.79688960571919     -1.87877946761349     -2.45911442690340
  H           3.78308165251997     -0.97924312095142     -3.59246447000901
  H           3.86280690665271     -2.73464362397016     -3.69104213922658
