21
Coordinates from ORCA-job NEB_reactant E -38.072602436390
  C           1.58743217097026     -0.06257978480501      0.10610631066844
  C           1.39552844253175     -1.39952110357303      0.08249179623219
  C           1.53410860863083      0.94820140385544     -0.99391025675980
  H           1.79220807499246      0.36260255774889      1.07652862055366
  C           1.48859530031524     -2.02502283527798      1.37351512687327
  C           2.93314767036227     -3.11329373320376     -3.66393009773584
  C           2.58455272111438     -2.21679191952864     -2.75652575693255
  C           1.18320107646176     -2.04264136850805     -2.25403095843979
  O           1.10645578259102     -2.30218026058451     -0.85117453272544
  C           4.31716663585897     -3.29411140682324     -4.18383049617009
  H           2.18409123426265     -3.76850413435732     -4.09077989227341
  H           3.32473691093153     -1.55917506489018     -2.32256066850458
  H           0.52351149531079     -2.79232438042322     -2.69850612031094
  H           0.79523778107539     -1.05249067823186     -2.49876530485025
  F           2.46412622488107      0.73727598810124     -1.96662438630465
  F           0.33164473576295      0.95624439282311     -1.63955875351570
  H           1.69685931376518      1.96496116205866     -0.60827834676816
  N           1.57389100205472     -2.50691170931516      2.40696946617558
  H           5.00761080002928     -2.60097284945171     -3.71091399100150
  H           4.33569071772644     -3.13157329473274     -5.26096765174703
  H           4.65480330037104     -4.31349098088093     -3.99965410646341
