23
Coordinates from ORCA-job NEB E -47.400848750530
  C           0.55535245104084      0.12467601154815      0.86720668420882
  C          -0.50478301896067     -0.74120178999512      1.22397957346463
  C           0.46475705383053      1.57428060492285      1.31204523573453
  H           1.55665337323023     -0.24636647098064      1.07388138989874
  C          -0.24682179788930     -2.20657922823438      1.40464818069226
  C           0.35516132455554      0.06548006411591     -1.01400798324804
  C          -0.97303524164910      0.47586125082872     -1.22914487302841
  C          -2.00766851789016     -0.29145926147978     -0.61601629017681
  O          -1.71915811161316     -0.34777048611141      0.95540113717520
  C           1.44467881988079      0.78048848484358     -1.76803417527001
  H           0.54107332832327     -1.00865189969130     -1.08977159660283
  H          -1.17576520425680      1.50792871056041     -1.46974412835295
  H          -2.01123040223511     -1.35587187154691     -0.84864205819939
  H          -2.99901641611381      0.14215007848496     -0.66822069840730
  F           1.61270346411029      2.23179148291778      1.01643438841724
  F          -0.53405030036624      2.28034752177303      0.75081795356385
  H           0.33511277777208      1.63249669122475      2.40576739306608
  H          -0.24101506431350     -2.70617809642593      0.43003189409646
  H          -1.04840991552027     -2.64741958882400      1.99178700039579
  H           0.70642722579284     -2.38589725102598      1.89131418207814
  Br          1.41860931472281      0.03443284242344     -3.60903156488930
  Br          1.24753968146896      2.69694478401197     -1.94747208171998
  Br          3.22288517607995      0.39051741665989     -1.06322956289668
