22
Coordinates from ORCA-job NEB E -34.113813370650
  C           0.31691627425326      1.31857830748634     -0.35226662271803
  C          -0.67272089544587      0.55470489538193      0.31781051704568
  C           0.00641635845411      1.87747861531625     -1.62166971412287
  H           0.94563486475365      1.96447440914938      0.25577978972994
  C          -0.65170831553046      0.51734894165536      1.83004007706408
  C           1.45369625845762     -0.16895494936943     -0.92622590538894
  C           0.57329099999379     -0.91777552583044     -1.72481503781471
  C          -0.52441605274057     -1.52316744260046     -1.08421642937304
  O          -1.40132053558127     -0.26196264740453     -0.35054106881387
  C           2.55762188057973      0.49366471568916     -1.53356782968641
  H           1.69536325210709     -0.55066996891969      0.06428825575116
  H           0.49293215163915     -0.65671531787756     -2.77008296557284
  H          -0.33068596830425     -2.09414961583057     -0.18271885596744
  H          -1.28493092650563     -1.96497621066747     -1.71314898127344
  N          -0.27734804533207      2.32634335602774     -2.63519085874899
  C          -1.26225503375714     -0.75650104458468      2.40379914791866
  H          -1.22437059201012      1.38095515909630      2.18426177405210
  H           0.37435450895171      0.64894701037208      2.18558574950101
  H          -2.22780039580497     -0.94696520498806      1.94197632567536
  H          -1.40101862435031     -0.65601076019015      3.47681369167802
  H          -0.61765299049969     -1.61409007122952      2.22281047114924
  N           3.46000182667223      1.02944334931802     -1.98872153008467
