22
Coordinates from ORCA-job NEB_reactant E -34.158285472780
  C           1.70214020346010     -0.62516992777480     -0.18276170733634
  C           1.82038024231370     -1.84120429177956      0.38327835573660
  C           1.77065794012325     -0.27895936382139     -1.53602205377972
  H           1.50807143428400      0.21586687087169      0.46900502625717
  C           1.63030954421173     -2.01573012313105      1.86623573041665
  C           4.05015873435869     -2.06619285095026     -3.06101216464160
  C           3.70585642071325     -2.67725003935979     -1.93021268544272
  C           2.31205793066474     -3.11131225187062     -1.59657292436937
  O           2.04879629472731     -3.02829283793931     -0.20726484825316
  C           5.38565446124464     -1.71857424326702     -3.34154821086367
  H           3.32346661419269     -1.79587539837082     -3.81521872413186
  H           4.45080439482795     -2.91663730655446     -1.18182381355880
  H           2.20757337508412     -4.18012798323860     -1.82388019020020
  H           1.56767499235454     -2.55580763151769     -2.17616576822473
  N           1.79920945101999      0.06745076214890     -2.63249843706804
  C           0.15023903552589     -2.21975404789969      2.19705480133629
  H           2.00850900429634     -1.14009875425143      2.39441829232465
  H           2.19495119732796     -2.89279776486707      2.18478287538557
  H          -0.43379734525045     -1.35627232678607      1.88686038438276
  H           0.02329584467474     -2.35862938412759      3.26740358140356
  H          -0.23291322751572     -3.09920764795489      1.68548797236463
  N           6.47510345736056     -1.45162345755845     -3.57854549173766
