19
Coordinates from ORCA-job P E -38.003532444870
  C          -1.33475129559412      0.51942080712728     -2.20442012610105
  C          -0.10069023667271     -1.69487097902764     -1.09208349143627
  C          -1.42916216730470     -1.85825740491122     -1.76229817231357
  C          -2.00774552104811     -0.81042160409527     -2.32505620194394
  C          -0.91477726175305      0.73575407601906     -0.74503636870430
  C          -0.03982007798132     -0.41619356884033     -0.22472494854947
  H          -1.86418648961078     -2.84334271971005     -1.79855495119009
  H          -2.95588485353492     -0.84603731988459     -2.83432592167342
  F          -2.19042856556254      1.53344065655822     -2.57492024368370
  H           0.13900205656769     -2.56308510354704     -0.47875266384700
  H          -0.46705918463216      0.59383550196074     -2.87596804853626
  H           0.66551066692853     -1.62098560504311     -1.87148158523943
  H          -1.82963650871198      0.80009541320289     -0.15413347535194
  H          -0.33788109854966     -0.65951999612790      0.79911438021810
  H          -0.39225509517616      1.68945819489227     -0.65333669992757
  C           1.41136517547009      0.03709811484264     -0.13718523847127
  F           2.22269705191027     -0.94095690209510      0.29524966150879
  F           1.89941389719647      0.43868280828433     -1.32108355400384
  F           1.57596950805915      1.06515563039481      0.70881764924625
