19
Coordinates from ORCA-job R E -37.906743989640
  C          -1.27476320908493      0.12302047372100     -2.97330563260548
  C           0.07422636909364     -2.47166627773333     -2.26851727582607
  C          -1.11370887142572     -2.06338379478105     -1.83672333474467
  C          -1.79972194724797     -0.85070768905418     -2.24050447680604
  C          -0.94872228772056      1.47659222311751      0.09123373504910
  C          -0.27729843891949      0.51680060969382      0.69791485351192
  H          -1.65274036846219     -2.66860124494268     -1.11999501284589
  H          -2.82010133549755     -0.73573198848926     -1.90086901846391
  F          -1.99071432575838      1.22105645441323     -3.27742102135123
  H           0.51596738850314     -3.38234391624687     -1.90409091031599
  H          -0.27418483254765      0.17479435230117     -3.37181551203611
  H           0.64959319228841     -1.91736902170031     -2.98856316723287
  H          -1.92090473687015      1.78174419216371      0.43558429227498
  H          -0.63933028969042     -0.00760725584812      1.56892337966996
  H          -0.55749226913275      1.98505627282777     -0.77410056431318
  C           1.08530431434271      0.08175705148990      0.25493063016727
  F           1.26406076138394     -1.24142699978036      0.39783020830971
  F           1.34780485473365      0.36909554952444     -1.02797264959792
  F           2.06053603201226      0.66753100932362      0.97796147715642
