19
Coordinates from ORCA-job NEB E -29.689349199120
  C           0.31527363383938      1.12704549729161      0.10872216822794
  C          -0.91874388959115      0.67536209226548      0.59298653020384
  N           0.50308574760521      1.44639749709405     -1.26155833267843
  H           0.95716595655783      1.69172123773109      0.77441708981509
  N          -1.10139714963424      0.55327383093900      1.97382318009928
  C           1.19932998662512     -0.71281753098704      0.09327278944516
  C           0.34124674030072     -1.40100149046833     -0.76406016481537
  C          -0.98934724577977     -1.61061275857732     -0.35740360811637
  O          -1.67490893199432     -0.03529415659162     -0.17468001020026
  O           2.47223620561504     -0.39953726947337     -0.26428561512209
  H           1.13772904058499     -0.89407860169543      1.16089630912868
  H           0.55434040970826     -1.35570323873671     -1.82424276059290
  H          -1.14740420276803     -1.94734094478774      0.66053544044495
  H          -1.67222390039483     -2.04689691926818     -1.07217122886493
  H           0.59051847886914      2.44442516304023     -1.41152471798911
  H          -0.27798421506049      1.08496739215153     -1.80081789691625
  H          -2.02959373769992      0.25730437172608      2.23428562172456
  H          -0.73803829633334      1.30385097249186      2.53800167372402
  H           2.47871536955039     -0.18106514414521     -1.20619646751784
