20
Coordinates from ORCA-job NEB_product E -32.780820235970
  C           3.26910655528213     -0.63622722169154      0.30087963839191
  C           2.09123826151416     -0.49903908629390      1.27386149505384
  N           2.89646941521427     -0.36624244467195     -1.06524257338771
  H           4.06134375363594      0.05610764158157      0.60552865441264
  O           2.49318210741638     -0.53302921914372      2.54292214518629
  C           3.78570527396448     -2.07297350604937      0.45652063891198
  C           2.73205022486051     -3.09402093496419      0.22756337380586
  C           2.39014202458454     -3.99701028657044      1.12891494944909
  O           0.94631450453231     -0.39442447131618      0.92166339232446
  I           5.39012667500366     -2.37304748622986     -0.98069359686862
  H           4.24162973543783     -2.19575707503323      1.43912714666943
  H           2.24861535147480     -3.06271921151931     -0.73864611901396
  H           2.87167119488261     -4.04954106882704      2.09257921364295
  H           1.61485809157637     -4.71910847379644      0.94080181292473
  H           1.99422190701966     -0.78538539581170     -1.26986269005402
  H           2.81313278630238      0.62889087281638     -1.23393035746741
  C           1.46925402290607     -0.46076336586256      3.53057372984652
  H           1.97533219082414     -0.45689929090344      4.49198000586301
  H           0.80630698623137     -1.32380290408335      3.44621285040084
  H           0.88249893733641      0.44999292837028      3.39924628990817
