20
Coordinates from ORCA-job NEB_reactant E -32.745479948010
  C           1.45232604479169      0.16011655611978     -0.13756832602125
  C           1.98068589696483     -0.67280987746642      0.76122131836417
  N           0.73314198292035     -0.24991083998443     -1.25280790975454
  H           1.65354441943380      1.21599046233151     -0.05726411565568
  O           2.85836297948340     -0.22497223439417      1.72239507190318
  C           4.19167037695079     -3.53120128828558      2.15633189746953
  C           4.00379559869822     -2.74606972229419      1.11397765825039
  C           2.77110827423745     -2.84886601132619      0.26045527648173
  O           1.70707625064064     -2.02952008754105      0.74820193322002
  I           5.84786462314356     -3.36623225144444      3.44121910220292
  H           3.51635503628954     -4.32305638392640      2.43509156390369
  H           4.69045927232673     -1.94710933080129      0.87710969769224
  H           2.36384248715624     -3.86314800123509      0.28147384331206
  H           3.00791904889658     -2.56430725359743     -0.77267256091832
  H           0.40547917688577     -1.20352826988187     -1.17607737182859
  H           0.00428816253551      0.38772770504863     -1.53592830156251
  C           2.46234932063450     -0.48688901299048      3.05810625492853
  H           3.32145534419682     -0.25044572101047      3.68253668818503
  H           2.18701962606732     -1.53706269051580      3.19031139222198
  H           1.61335607774624      0.14399425319539      3.34048688760542
