26
Coordinates from ORCA-job NEB E -56.769278224630
  C           0.13704202020475      0.53463811301210      1.02280130847160
  C          -1.14136166024672      0.17926546575423      1.49966476522487
  C           0.26315163983728      1.92108686432217      0.42831121992951
  H           0.96589001604614      0.36731905910730      1.70759345630286
  C          -1.20547356774370     -0.82237887211100      2.64144901736688
  C           0.39403997733557     -0.70694486909474     -0.40001086598322
  C          -0.77220487935555     -0.50614661353966     -1.14985018542769
  C          -2.04299957534941     -0.75996392533107     -0.53901542649031
  O          -2.16640906232395      0.23366894577290      0.69501209156634
  C           1.76808285018428     -0.52305494096078     -1.01693539120126
  H           0.38107327841745     -1.57468183174437      0.25554950639689
  H          -0.74950828648033      0.15050496898149     -2.00447100849084
  H          -2.15325003201130     -1.73015433059474     -0.05788168632471
  H          -2.91018034892827     -0.49854796566882     -1.13480574532570
  F           1.52867494124162      2.21048981341922      0.08964101103143
  F          -0.48503958659247      2.16574311910117     -0.64609445077079
  F          -0.08172794579629      2.83834364385609      1.34775002267664
  F          -2.39572636849806     -0.84841669580111      3.23409200647721
  F          -0.96272358977503     -2.09436300166558      2.22466325414028
  F          -0.28448012520292     -0.57197929717280      3.58236706069436
  C           1.81046402033265      0.26181459774877     -2.32279258516759
  H           2.15694494365792     -1.52790292466798     -1.20574880292694
  H           2.44167714181757     -0.06111802865990     -0.29365614581663
  H           1.39977621611616      1.26017105763330     -2.21018523436506
  H           2.84376842977162      0.36132450738240     -2.64461285478604
  H           1.26049955334100     -0.25871685907859     -3.10283433720210
