26
Coordinates from ORCA-job NEB_reactant E -56.798398517150
  C           1.60382692463063     -0.11907078564187      0.31505969773607
  C           1.43191176502405     -1.42862247496359      0.08909885421722
  C           1.61974641083199      1.02191098785298     -0.64623482154439
  H           1.72422563159359      0.20885684629801      1.33548949138889
  C           1.42841596469598     -2.35982474063158      1.30686973242024
  C           3.34003220291267     -2.66100372866702     -3.65190640632190
  C           2.88401487972443     -1.85308559663371     -2.70901197647683
  C           1.43762838770547     -1.75517211213352     -2.32878400127765
  O           1.23697208207676     -2.18922260300154     -0.97556421069932
  C           4.77152183564111     -2.76264314543724     -4.06155565017238
  H           2.65193548783770     -3.28460892078866     -4.20859768482361
  H           3.56174946180436     -1.22623497097320     -2.14736910569172
  H           0.83961410365885     -2.45581379062109     -2.91570712551757
  H           1.04831682454153     -0.74744755826679     -2.48130340262696
  F           2.62031574952594      0.97788749949888     -1.54614839714623
  F           0.48458153058738      1.13863723198002     -1.36548368131382
  F           1.76323458529206      2.17806241400396      0.00935834461022
  F           0.34217334244576     -3.13355691548279      1.32453552380766
  F           2.49217093319922     -3.17073174803797      1.28529856360554
  F           1.46272488718156     -1.71088396437648      2.47380259456776
  C           4.94538600868469     -2.39812632395950     -5.53598212268304
  H           5.10937166251264     -3.79115963878053     -3.90775188233462
  H           5.38402442857773     -2.10553985953505     -3.44286850571660
  H           4.62551287331492     -1.37373185451478     -5.71088907743768
  H           5.98862602484339     -2.48980327536917     -5.82701152588401
  H           4.35206601115556     -3.05697097181776     -6.16584322468530
