26
Coordinates from ORCA-job NEB_product E -56.795988914290
  C           2.87393594325759     -1.04342455120102     -1.03413056253208
  C           1.50948756169715     -1.13403761470424     -0.39063879856496
  C           3.16319669974246      0.41908083306159     -1.38214732727873
  H           3.65060687318774     -1.32887589291721     -0.31512074469902
  C           1.31662567898636     -2.39737599262151      0.51009861861906
  C           2.88991523784879     -2.07492857825438     -2.20886558156914
  C           1.67261869231392     -1.93082151312006     -3.08218486048524
  C           0.87305095674109     -2.93898431950498     -3.37356389208231
  O           0.60030975517810     -0.38010294607778     -0.54808433122977
  C           4.20249106745432     -2.04791752162790     -3.02442470062794
  H           2.84294719950296     -3.05576842987447     -1.72228304999282
  H           1.48021771907986     -0.94635475807008     -3.48009549785348
  H           1.03726423853416     -3.93087768118899     -2.98556421890796
  H           0.01732517691564     -2.81173604376160     -4.01276458946084
  F           4.45130683059371      0.60170068164253     -1.70510882841135
  F           2.43833630001266      0.92108307377237     -2.37755597558764
  F           2.94596991211795      1.19711335820819     -0.30957365708074
  F           0.47902735956130     -2.15059174249808      1.51032766511801
  F           0.81831785316679     -3.41985817944977     -0.19745174043987
  F           2.46934104583937     -2.82720492097737      1.04528782955427
  C           4.19141967099343     -1.14806027835439     -4.25533669653462
  H           4.38462350318252     -3.06997734324117     -3.36237915310313
  H           5.03012054264826     -1.76823316708072     -2.37056660378182
  H           4.00181586233666     -0.10919232263149     -4.00828924854931
  H           5.16227220420664     -1.20195335942027     -4.74161975574822
  H           3.43635611490057     -1.47980079010718     -4.96326429877036
