20
Coordinates from ORCA-job NEB_reactant E -42.025290193030
  C           2.10617814254420      0.08695187709906     -0.55850682746202
  C           1.44321067848074     -0.78032221546091     -1.34427354819541
  C           2.02808732375520      1.48581739494863     -0.58100040454551
  H           2.77469997505246     -0.29893849097355      0.19738163801927
  C           1.67674741068125     -2.27019067288579     -1.20278751450357
  C           2.52741168741349      0.68987785781089     -4.06244751309803
  C           1.59823348910792      1.39711128202381     -3.41968321335107
  C           0.37451006804869      0.77949657856651     -2.81108114554165
  O           0.58616043180716     -0.55144945651357     -2.33983434079003
  N           3.71740161022074      1.19444230133125     -4.52671382544971
  H           2.42060685866354     -0.38014711291708     -4.18390071922942
  H           1.70629544893121      2.46161810449576     -3.28520725990300
  H          -0.42469213265469      0.65438794015292     -3.55120329830442
  H          -0.00204097343983      1.40694095692222     -1.99632441539701
  N           2.01398851035550      2.63218615069575     -0.50947771521179
  Cl          2.99320436110497     -2.72281075557480     -2.32911260997598
  Cl          2.15488947341261     -2.74766916461208      0.43096349647960
  Cl          0.22136105264179     -3.18085344888590     -1.64594997864917
  H           3.77529572650646      2.20003589752225     -4.57318187697269
  H           4.14385085736659      0.71351497625463     -5.30095892791840
