15
Coordinates from ORCA-job NEB E -30.580176652170
  C           0.44815188187228      0.85197260066674     -0.05229532753824
  C           0.77592035878685      1.88845761733708      0.84955908792865
  C           0.35470146651529      1.09770940600989     -1.46584394134393
  H           1.43317306208311      1.51619841056566     -1.16981362970116
  Cl          1.63196889630184      3.26994486399393     -0.10391438647348
  C           0.24455829634001     -0.52576991730585      0.45165520002326
  C          -0.81181555181002     -1.30007652751473     -0.24246660684078
  C          -1.76280368749295     -1.94999897138427      0.40537484080170
  O           0.61529243394797      2.02446128120061      2.01486517726105
  I           2.15931807965184     -1.68381717675241      0.30382689117944
  H           0.08065233134366     -0.47517913743078      1.52889932750640
  H          -0.76193771678165     -1.30863665605737     -1.32251869364181
  H          -1.81972932595915     -1.95462868053762      1.48178482496882
  H          -2.52197467125667     -2.50307820107778     -0.11849471830114
  N          -0.06547585354242      1.05244108828691     -2.56061804582875
