20
Coordinates from ORCA-job NEB_reactant E -38.363251150680
  C           1.78638162093065      0.13475500958321     -0.55119616441689
  C           1.54162766935322     -1.19751629520050     -0.49081756024861
  C           1.89691134876270      0.94428320321918     -1.67683814720208
  H           1.90196299370592      0.66106078050973      0.38611786696819
  N           1.39267954721576     -1.83448863284362      0.71136831770998
  C           3.15054524083454     -0.57998903078188     -4.26723618020667
  C           2.81369500952472     -1.43032315666878     -3.31403808118260
  C           1.40644894708622     -1.65125294079430     -2.84702211133383
  O           1.34648797864651     -2.07557139089955     -1.49837466110261
  C           4.55779288353098     -0.36683194472146     -4.72805817292646
  H           2.42496793266996      0.03548985689727     -4.77604833814660
  H           3.56381847638804     -2.03043764917405     -2.81626169381780
  H           0.96723804907819     -2.48667240703491     -3.40493954045352
  H           0.79301374560672     -0.75915741646920     -3.00738284028804
  N           2.00372641543051      1.67420244093661     -2.56141669721077
  H           1.40439977798033     -2.84004343912488      0.68229225214442
  H           1.76571325326891     -1.39651162060251      1.53447724100432
  F           5.43870351180311     -1.18096729583167     -4.09770738669532
  F           4.68038495490169     -0.64081895131883     -6.05553578534912
  H           4.89140064328128      0.67349088032012     -4.57638231724602
