20
Coordinates from ORCA-job NEB_product E -38.384870178790
  C           2.98894851966406     -1.00483430931966     -1.58904331035302
  C           1.86784834121610     -1.92225310250897     -1.04219012735810
  C           2.96359605914266      0.27667841433782     -0.93281318531117
  H           3.94157386527931     -1.49874666975579     -1.35047613193911
  N           1.62205837944992     -1.76463510529191      0.27099496824211
  C           2.85528685987579     -0.88426624391306     -3.12453894371788
  C           1.78378620726810      0.10147808173875     -3.50096052098479
  C           0.60155402623832     -0.25859062188724     -3.96076129112044
  O           1.31034493516196     -2.73469043820766     -1.73640941787447
  C           4.18919852734159     -0.48796649594984     -3.75279073925604
  H           2.59305348354747     -1.88063429249060     -3.49807084221437
  H           2.03600861065232      1.14147925860670     -3.34146832463588
  H           0.34224804060905     -1.29492341626862     -4.10006908207712
  H          -0.15554926825557      0.46725582636234     -4.20104030618988
  N           2.90887575334874      1.27725059102432     -0.38176103395450
  H           0.89721529478359     -2.32250155056581      0.69271795568661
  H           2.04081873207005     -1.02812900758328      0.81305878548101
  F           4.65964207300108      0.67636048927180     -3.24725750272256
  F           5.14107328405499     -1.41909656996335     -3.48617210991022
  H           4.12221827555046     -0.37773483763592     -4.84574883979016
