19
Coordinates from ORCA-job NEB E -33.160076109570
  C          -0.15363812213261      1.23101324425573      0.14036869194498
  C           0.25525218208400      0.92504419926561      1.41962435464849
  C           0.82350726775269      1.48985715303090     -0.97574714356319
  H          -1.04503719216062      1.83714117588301      0.03303658597255
  Br         -1.19361069844856      1.25430074290534      2.78022568617648
  C          -0.89677400546831     -0.75293812139333     -0.32445898571227
  C           0.24246169571167     -1.47598714541520      0.03678421552096
  C           0.64300522945617     -1.56570469201590      1.36292410902977
  O           1.15080746138050      0.15418927145195      1.77608056383690
  N          -1.31056494281634     -0.70436315404995     -1.62363411994013
  H          -1.69958777898175     -0.64510765196571      0.39507662396249
  H           0.96209272244842     -1.70091245594826     -0.73702265405673
  H           1.56594916263529     -2.07133589409008      1.59585367918333
  H          -0.10744009473034     -1.60100162000523      2.14164321882005
  F           1.87685530859959      0.61944510033317     -1.00972235826292
  H           1.25278944639427      2.49578167933630     -0.87372195787393
  H           0.32035641794626      1.41609912751309     -1.94877380192165
  H          -0.60001227189349     -0.79714998978412     -2.33238341527406
  H          -2.08641178777684     -0.10837096930735     -1.85615329249112
