19
Coordinates from ORCA-job NEB_product E -33.192739431220
  C           0.59309185533978     -1.29670205572265     -1.11407975360651
  C           1.19389195729231     -1.29189286462838      0.25258075042753
  C           1.66503424363881     -1.06403273611362     -2.18300635796313
  H          -0.11723389646301     -0.46741143148846     -1.19091379644000
  Br         -0.19871293629362     -1.20187744760900      1.64727097669017
  C          -0.21741519594424     -2.62124256083051     -1.31819033534791
  C           0.54112553310174     -3.80377839486189     -0.77008515113183
  C           0.10237006586913     -4.55444800121645      0.22275698133366
  O           2.32126374086230     -1.31878696845911      0.59047259133034
  N          -0.54482170038423     -2.74382366644976     -2.72945960072263
  H          -1.15842174775515     -2.51250374317878     -0.76787683520129
  H           1.47676936602859     -4.02679977420764     -1.26407735506404
  H           0.65970302940099     -5.40348268406422      0.57955088715335
  H          -0.82725305484852     -4.34591422077187      0.72791065282875
  F           2.47415527644672     -2.15392238546008     -2.35759275444151
  H           2.31691125421799     -0.23103168406298     -1.90007633237543
  H           1.18545889135055     -0.86720463699026     -3.14592242117169
  H           0.25516351272577     -3.09883583008772     -3.24415310489113
  H          -1.30558019458593     -3.40030891379661     -2.85500904140670
