20
Coordinates from ORCA-job NEB E -39.846233699690
  C           0.01727815607063      0.70675468116944     -0.81661868968667
  C           0.12833801083171      1.76258840298211      0.10100103660370
  C           1.03091309007027      0.50212471021406     -1.89303485283247
  H          -0.99923897136813      0.55462477034073     -1.16862573475207
  Cl          1.73999539772768      2.40323943207926      0.44812032473034
  C          -0.01749268154679     -0.82093468883308      0.53182497212973
  C          -1.06953693542925     -0.40243076457697      1.34572678595493
  C          -0.92833858210873      0.74830711242523      2.13221801964366
  O          -0.77942174369085      2.00945642467388      0.92961118666877
  C          -0.16669403110969     -2.09094827562328     -0.25301408793425
  H           0.98602182761721     -0.64438541213611      0.90692464699807
  H          -2.06733873043382     -0.74281542661387      1.10523518028946
  H           0.02174004079602      0.92455235310766      2.62223473547585
  H          -1.78421112177183      1.10709356041659      2.68467409759902
  Br          1.42373910777962      2.19983996393354     -2.83654488939824
  Br          2.73324547079801     -0.21800082849885     -1.28321506997422
  Br          0.34597975567997     -0.70276716525924     -3.26709531640689
  H           0.69133331377606     -2.28540710470484     -0.88909780956740
  H          -1.07256390141620     -2.09320995032441     -0.85452415519076
  H          -0.23374747227187     -2.91768179477185      0.45419961964944
