20
Coordinates from ORCA-job NEB_reactant E -39.874048990460
  C           1.58547235319169     -0.92013229065878     -0.02938057753670
  C           2.31444098100508     -1.02755750907979      1.09192482679291
  C           2.10551735060838     -0.42383034153193     -1.31282683498487
  H           0.54458299649425     -1.20362706077453     -0.01976521427580
  Cl          3.97651795353851     -0.58087294291453      1.13721944813052
  C           0.12299818946539     -4.38530532583983      2.66870964150679
  C           0.42434111057214     -3.32792289260511      1.93249437381326
  C           0.60283392135525     -1.94931901288562      2.49237180190019
  O           1.92855272519927     -1.44767914213897      2.29123851242280
  C          -0.06128784732915     -5.76199089717545      2.13423445485948
  H          -0.02092039390197     -4.27450353894250      3.73595150255610
  H           0.57883310586909     -3.43372476794204      0.86771163368131
  H           0.48781726678175     -1.96080562541090      3.57812310490931
  H          -0.12376977869769     -1.24610445974752      2.06546287285105
  Br          0.69697316885178     -0.44164975519791     -2.65509827092144
  Br          2.77448287892189      1.43783513497823     -1.20887257759987
  Br          3.58354602854992     -1.53130686747490     -2.01809045108916
  H           0.10280773173375     -5.79452215457227      1.06066803560440
  H          -1.06958834276153     -6.11361421493472      2.34984635941156
  H           0.63404860055220     -6.44476633515093      2.62067735796816
