14
Coordinates from ORCA-job NEB_reactant E -31.273571468880
  C           2.04431419555673     -0.07003227704049      0.10307665488100
  C           1.28261102678736     -1.13480156188742      0.33302831182906
  F           2.31991414213428      0.34266788138992     -1.14498181368978
  H           2.48989898365481      0.52584608984187      0.87977142293444
  F           1.05499505689039     -1.47464254197691      1.61938924232094
  C          -0.54897144111087     -4.98750449170126     -1.52240947932093
  C          -0.64607247046433     -3.68101544432498     -1.34292869229627
  C          -0.11353505427339     -2.98368951081461     -0.13269708258116
  O           0.71520055000581     -1.91416202055071     -0.58502632217825
  Cl         -1.18611801685912     -5.78367755928692     -2.89844271662934
  H          -0.08265204899261     -5.65376244132043     -0.81194118716148
  H          -1.10854133408989     -3.04387816003682     -2.08106898454578
  H           0.46331323351032     -3.67107530495312      0.49698019095739
  H          -0.94425682274950     -2.57527265733811      0.46045045548015
