17
Coordinates from ORCA-job NEB E -37.493243112110
  C           0.81604177139329      1.12465767428726      0.45514644483853
  C           0.32089053062179      0.44799925275046      1.57890256871070
  O           2.08595936248672      0.93683187643045      0.04469162836116
  H           0.37142162571214      2.09811553025843      0.25999638304364
  F          -0.84462986980232      1.04261836850872      2.02827620488630
  C          -0.19404506631364     -0.19451195464814     -0.90029040613116
  C          -0.90338584506525     -1.13563050983098     -0.16743348510474
  C          -0.19193239805072     -1.95342864502373      0.70571871628485
  O           0.48937538451288     -0.72947948290158      1.90363357142855
  N          -0.88215518233420      0.77843648560058     -1.70366478188469
  H           0.78604442256059     -0.44101521064861     -1.28971312175161
  H          -1.96000776381602     -0.96093644212672     -0.01109095016191
  H           0.79385680924659     -2.29247456966840      0.42285912586510
  H          -0.72886131361401     -2.60480247251968      1.37677271535868
  H           2.29990936181928      1.53792534228044     -0.68150159105413
  O          -2.08337106673179      0.86191953775701     -1.62297115881536
  O          -0.17511076262533      1.48377521949450     -2.39933186387391
