17
Coordinates from ORCA-job NEB_reactant E -37.530180355710
  C           1.61263862871335     -0.09334222834035     -0.64752245348612
  C           1.05810268483138     -1.22604970117312     -0.22862147767130
  O           2.33264950801323     -0.03790649165723     -1.80378140934096
  H           1.49241595159446      0.80306445961437     -0.05840719937897
  F           0.28074374850502     -1.18441261605096      0.89136823241503
  C          -0.04854767719456     -1.81090963822746     -3.21653924972722
  C          -0.60525823000449     -2.68321201351170     -2.38435809888430
  C          -0.00645755394221     -3.13126040968464     -1.09489134499061
  O           1.19520795687992     -2.45341149234763     -0.75479410918222
  N          -0.70339595088687     -1.43215088552515     -4.43247022391384
  H           0.90593092167063     -1.32921657531449     -3.06284825229912
  H          -1.56392175680439     -3.12030296275251     -2.63618992144681
  H           0.26714526211483     -4.18913298919098     -1.17129917390354
  H          -0.74838998514629     -3.03137491099827     -0.29062065092595
  H           2.78746372683435      0.80724535440793     -1.87338547525244
  O          -1.76827566047740     -1.94696247507824     -4.70065778117032
  O          -0.13985157470095     -0.60586442416956     -5.11718141084130
