17
Coordinates from ORCA-job NEB_product E -37.546499568800
  C           0.75328993418684     -0.37747072867000     -1.52641720513912
  C           1.36542927458039     -0.93683573984734     -0.26574534378226
  O           1.68649622369799      0.38983995188779     -2.21933337323032
  H          -0.10775214959389      0.26127430123287     -1.28320757540554
  F           0.43939876750002     -1.36215811143365      0.61766724196855
  C           0.24416765628680     -1.55618000954530     -2.40332986332406
  C          -0.69739204058030     -2.47411006049982     -1.68466599722035
  C          -0.49238523350235     -3.77158435965261     -1.55813960642910
  O           2.51831224592722     -1.03397662552272     -0.03019208743942
  N          -0.51906102246674     -0.95107859222268     -3.54738815718678
  H           1.08944644002377     -2.09780014342013     -2.83984004293692
  H          -1.58059151869912     -1.99664255291650     -1.28359705039250
  H           0.38259788529764     -4.25546211977151     -1.95996950501757
  H          -1.19303089411027     -4.40038357525589     -1.03882922202814
  H           2.58173822119079      0.08287148685244     -2.01418516420761
  O          -1.39408074994743     -0.17778428577201     -3.26428973412725
  O          -0.21668303979135     -1.32271883544294     -4.64783731410162
