23
Coordinates from ORCA-job NEB E -38.959136187840
  C           1.06217499051033     -0.50514301764325      0.40115442263204
  C          -0.30045495892473     -0.76723396794454      0.56455446241997
  H           1.60313548106217     -0.13938631185749      1.26340223348837
  H           1.62813164231619     -1.19602402786418     -0.20989584629624
  C          -1.05111947349922     -1.65764191384171     -0.38682728106197
  C           0.93190539408405      1.15258739115493     -0.54344990836126
  C           0.17577126474830      1.95590701740098      0.31721987741170
  C          -1.13844518757974      1.48682495747503      0.64904527577700
  O          -0.99658966155992      0.07076874293483      1.30279150028882
  C           2.32247398016769      1.59587280437829     -0.88616698351356
  H           0.42582791199107      0.77287420555621     -1.43070809746750
  H           0.69196339751695      2.56290488063932      1.04763379045825
  H          -1.78664428544412      1.28667137534161     -0.20537644568467
  H          -1.65165083961296      2.06078324902270      1.41248729935986
  C          -2.03212873931650     -2.55842142005649      0.36325869158832
  H          -0.35121405389832     -2.25864359859278     -0.96755952204779
  H          -1.62036459610829     -1.02256556280132     -1.07845513879292
  H          -1.49191282048629     -3.25778800768151      0.99638479732997
  H          -2.64274555074185     -3.12180521091340     -0.33756572089920
  H          -2.68235393093864     -1.95547581625593      0.99211449800652
  Br          2.22653482655091      3.25031276737334     -1.95930287903294
  Br          3.41977025229094      1.96933630898342      0.67371468831164
  Br          3.25793495687197      0.27528515519195     -1.97845371391443
