23
Coordinates from ORCA-job NEB_product E -39.009150783010
  C           2.53821075899646      1.06357460853029     -2.02326760994116
  C           1.20375536205977      0.60320818581238     -2.60729050043393
  H           2.50819535328184      0.80613611188752     -0.96013553357299
  H           3.36935051681320      0.51466814472868     -2.46987854613374
  C           1.20759520776956     -0.81248739621478     -3.12411684997688
  C           2.71830176197887      2.58191383928468     -2.15004304066398
  C           3.47852885246912      3.15109622812286     -0.98545094632757
  C           3.05725726131249      4.17961588255897     -0.27447555890630
  O           0.23994658235760      1.32288085538629     -2.61539400353591
  C           3.41849224914681      2.95059198617088     -3.45076557345866
  H           1.71570443378147      3.03336695315765     -2.18364060728972
  H           4.41670003575155      2.66226831959423     -0.75766628865587
  H           2.12611046708038      4.67835277081180     -0.48860593223466
  H           3.62662251994578      4.56375857894518      0.55361825389905
  C          -0.18590119872154     -1.28913515193416     -3.50917884727755
  H           1.64809953096680     -1.45974770237994     -2.36168424194242
  H           1.86738274881264     -0.84143446366980     -3.99588533577035
  H          -0.84226121584737     -1.27766081971607     -2.64280878580489
  H          -0.14503042991488     -2.29929367137828     -3.90703119560647
  H          -0.60819826258420     -0.62979211041397     -4.26260996567842
  Br          2.50694214965630      2.19823819091285     -5.00871734733926
  Br          3.47026205463011      4.88930914914526     -3.67494086630580
  Br          5.26313326025724      2.30227151065747     -3.49583067704252
