20
Coordinates from ORCA-job NEB E -54.098270431450
  C           0.54155043128251      0.78886248832025      0.25319974692980
  C          -0.74379484634297      0.37161006749242      0.65552945392223
  C           0.62906745782632      1.83686685339300     -0.83083055535336
  H           1.24233776350370      1.02907391789788      1.04919924255004
  C          -0.95323707843755      0.01923564441133      2.11992387191491
  C           1.27422189157728     -0.77077634733734     -0.66052623859417
  C           0.23827065533042     -1.70326625669409     -0.75365810037928
  C          -0.99679456784215     -1.23797253663563     -1.27638783973863
  O          -1.56403713686203     -0.13781661775094     -0.18874014755404
  F           2.33930966138693     -1.10932873432084      0.08176898918818
  H           1.60104419493300     -0.23826009307870     -1.55046337405488
  H           0.22258117666356     -2.48981417207192     -0.01172135377809
  H          -1.81501949633514     -1.94790643895210     -1.28666212444661
  H          -0.95317815251200     -0.63142235458906     -2.17528026025473
  F           1.89509610484059      2.07182148272395     -1.20173797893222
  F          -0.04294244578116      1.54773487736320     -1.95097650252551
  F           0.14402833463317      3.00477139711384     -0.38730968346524
  Cl          0.04408926989161     -1.41240929264940      2.54174359958775
  Cl         -0.45394323722326      1.37043903504883      3.15379068687608
  Cl         -2.64864998053283     -0.36144291968467      2.41913856810776
