20
Coordinates from ORCA-job NEB_reactant E -54.134053430490
  C           1.67237597603528     -0.18923709860090      0.06930882487948
  C           1.57628450932687     -1.43926011717644      0.54140844278366
  C           2.01762493992997      0.29568312504556     -1.29762247237127
  H           1.46824118562041      0.62636967503556      0.74390399637440
  C           1.23689327041932     -1.66358414442709      2.00984531217638
  C           3.60909747745255     -4.80812475011516     -1.87951264237198
  C           2.45164608332482     -4.28481843233652     -1.52308070842060
  C           2.24368030940724     -2.81572919811758     -1.34546086664566
  O           1.77393474786286     -2.63149869089434     -0.00777567185331
  F           3.76273272860589     -6.12415713052374     -2.04623330174046
  H           4.51758365980356     -4.26219812397093     -2.09274480855600
  H           1.60107350315501     -4.91878312238301     -1.32491051956395
  H           1.48463020919990     -2.46268506693369     -2.05276649532884
  H           3.18113484334292     -2.27564891694509     -1.50048459494629
  F           3.27813670253118      0.00411488514830     -1.68511384049090
  F           1.21909203749186     -0.18404840929095     -2.27198964102301
  F           1.91527094011398      1.62631280923331     -1.35662549521961
  Cl          2.77064936901241     -2.05100899481760      2.83916760627552
  Cl          0.50089690711107     -0.27370850088342      2.80337204142094
  Cl          0.13392060025288     -3.04248979704628      2.16731483462151
