18
Coordinates from ORCA-job NEB_product E -30.227783741050
  C           2.37850717863588      1.90038738658627      0.87677032987267
  C           1.33216886488242      2.70848974604865      0.14211567373812
  F           1.82596211010386      0.70042471396675      1.26044908413767
  H           3.24456482908843      1.69005675734722      0.24071370174031
  H           0.30634799404661      2.46378791814387      0.47886185244613
  C           2.83339220304019      2.66551884500840      2.14546203807192
  C           3.79258005119874      1.80681668303329      2.92529492916626
  C           3.50041576175410      1.23605265773572      4.07773079663229
  O           1.55736047642159      3.53570168842079     -0.68744198056626
  O           3.42287341171960      3.86231657897947      1.69341691966709
  H           1.94142145587662      2.88071225652563      2.75975845295778
  H           4.76054679366204      1.68515943755521      2.45923935155221
  H           2.53452953565798      1.35356441483801      4.54097817233710
  H           4.20958057405704      0.61671031774005      4.59891140559932
  C           3.66512720180706      4.79318058340579      2.72102255178854
  H           2.73266380953896      5.07918133823528      3.22230273067479
  H           4.10142207661735      5.66490034661732      2.23922699711226
  H           4.36113567189153      4.39583832981224      3.46808699307179
