18
Coordinates from ORCA-job NEB_reactant E -30.234355011080
  C           1.35527508135090     -0.19386923834498      0.47571007849952
  C           1.55473221754663      1.07647410243525      0.14745258888168
  F           1.74951029079837     -0.77593991542252      1.63552132759262
  H           0.84833334533897     -0.89153488888321     -0.16908566698398
  H           1.18608442154190      1.40816511811934     -0.81361793877905
  C           2.84672744793174      3.72118746918537      3.68035920741333
  C           3.29971657608725      3.09909624357332      2.59860473614784
  C           2.69744832460244      1.82853732164232      2.09402632044786
  O           2.15263904543627      2.08703504848756      0.79892557273246
  O           3.29174100325306      4.86390237634792      4.24299666152808
  H           2.02900166870185      3.31990439013016      4.26485455639129
  H           4.10597464921974      3.49328163152422      2.00127054708590
  H           1.90856155917183      1.47972300450653      2.76925038555587
  H           3.46432494029904      1.04665235366613      2.01220316309394
  C           4.35508775733450      5.53431008150988      3.60581687968488
  H           4.54948454954694      6.42448758305870      4.20119604510537
  H           4.08383503156640      5.82602210820918      2.58683046685469
  H           5.25342209027219      4.91016521025482      3.57538506874771
