22
Coordinates from ORCA-job NEB E -54.665008526430
  C           0.60700915168146     -0.59911860965375     -0.33325659880874
  C          -0.63037484313167     -0.60200559681390     -1.19378401640360
  C           0.46578180454136     -1.70177660002031      0.73072956272015
  H           1.47249753127905     -0.88681294401689     -0.94020070918403
  N          -0.58114620282248     -1.26294447952098     -2.43790820114183
  C           0.69334438432711      0.89165820975839      0.05864755715290
  C          -0.68711362770916      1.41316624317636     -0.07633634259638
  C          -1.92545605227073      0.62252932215187      0.12121572146479
  O          -1.86354414130764     -0.53939619158038     -0.64775067469162
  C           1.40816339806590      1.34797243416312      1.34891839246680
  H           1.29816731068067      1.35217046290997     -0.73848965002787
  H          -0.80264433137249      2.48424780398818      0.03303346634290
  H          -2.80158140018153      1.17797959651771     -0.23228601961401
  H          -2.09886216106943      0.40689632402095      1.18892098885851
  F           1.53561573668872     -1.74950676186829      1.54625195648285
  F          -0.61206518850721     -1.52771914648592      1.52619169597288
  H           0.36720286237382     -2.68360375952414      0.24184440627645
  O          -1.63327259702474     -1.47031076384779     -3.01084800776598
  O           0.53113958333858     -1.54790955946126     -2.86957062267868
  Br          1.52129819636857      3.31456495887302      1.31384913758926
  Br          0.48471874690753      0.87331357572909      2.98990913601929
  Br          3.25112183914430      0.68660548150493      1.38091882156596
