22
Coordinates from ORCA-job NEB_product E -54.709432160860
  C           2.65539141053625      1.52401967983101      0.22234126190693
  C           1.47036849256756      1.13201253875693     -0.61765977461312
  C           2.79832990343285      0.47959610679893      1.34511666877194
  H           3.56362319690383      1.45537666682343     -0.39251552680707
  N           1.39172231303944      1.88625465827563     -1.97140316750379
  C           2.46004475430417      3.01988017062137      0.61933409395778
  C           1.08210722678919      3.26534235230527      1.18091306801300
  C           0.22195882182600      4.09065915209422      0.61381889058732
  O           0.62333841880056      0.33977476186842     -0.39334437822383
  C           3.53143318529855      3.61581846754485      1.53560996062079
  H           2.56033622719734      3.58093822478576     -0.32130652006367
  H           0.82992883525122      2.73302693836745      2.08596763333001
  H           0.45464054828575      4.64081909287052     -0.28433190840948
  H          -0.75408160777367      4.25428068075800      1.03394465271364
  F           4.01886935423721      0.55368181802948      1.91143822441229
  F           1.89432129611179      0.64510836695634      2.32684989816181
  H           2.67580862610783     -0.54051231305334      0.94660839783855
  O           0.36913119595481      1.74717824178517     -2.57526467950403
  O           2.36109703576495      2.53088109085372     -2.29008671691146
  Br          3.31180177034440      5.57002104774800      1.46725242333653
  Br          3.41097373042024      3.11677364675318      3.40733671248163
  Br          5.33215526459975      3.22486860922567      0.87278078590423
