22
Coordinates from ORCA-job NEB_reactant E -54.714819294980
  C           1.86895519464784      0.34970365575666      0.05690154101831
  C           1.44134924108211      1.09655544648695     -0.96585741122037
  C           2.14408086190984      0.69943169830792      1.48602660610461
  H           2.10849137183275     -0.67343598331266     -0.20098511825420
  N           1.35028501488067      0.38553414010543     -2.28711146645177
  C           2.34806026011855      4.27919056062386      1.60478722811398
  C           2.20922516704250      3.78618016127105      0.38459774366118
  C           0.89738609355984      3.31308428647840     -0.15743414411338
  O           1.03622837682010      2.33722450874021     -1.17723935033968
  C           3.60173278193822      4.79035279016411      2.19604650599406
  H           1.49970624488916      4.34155470109142      2.27597597833105
  H           3.04475105884815      3.70852246558391     -0.29827241957336
  H           0.40239633191851      4.14458956134424     -0.67321911361146
  H           0.23723958525534      2.95539765163724      0.63865823982079
  F           3.26794160993000      1.45764591403350      1.60129312832754
  F           1.15234738732205      1.42504375974652      2.06563471635205
  H           2.29292761307066     -0.19988608971965      2.10007321940577
  O           0.96725279573471      1.04027530324460     -3.21524432150883
  O           1.66585641300312     -0.77664093998749     -2.31246399101422
  Br          3.39365050884443      6.72787858872073      2.54569256384686
  Br          3.92718825413086      3.90832061239772      3.91940404461376
  Br          5.17874783322059      4.55397720728534      1.09713582049731
