22
Coordinates from ORCA-job NEB_reactant E -39.919575591610
  C           2.07881857016502     -0.39950801835297     -0.64992047449446
  C           1.66949226597708     -1.40940382201645      0.18186244718125
  N           1.42812548636753      0.14334955577991     -1.74657639220974
  H           3.01359372097575      0.09045029794503     -0.42664955713623
  N           2.36822580365355     -1.62720173531860      1.33324914167167
  C           1.50403187920708     -2.59467784705461     -3.39912417447475
  C           1.40890744682390     -3.08831880085446     -2.16757044972691
  C           0.26939072547871     -2.75682661027388     -1.25958585975589
  O           0.71254406224473     -2.31844795834694      0.03536683807003
  O           2.45207415285075     -2.82821683718327     -4.32195245913180
  H           0.75325188342535     -1.92409258675593     -3.79642434533950
  H           2.15297380343109     -3.75236182689685     -1.75289103216476
  H          -0.31931829690621     -3.64766127905240     -1.01874933617009
  H          -0.37665422683574     -1.99873963802628     -1.71193578563861
  O           2.08807384759410      0.86512105123639     -2.48060527331694
  O           0.23013818763080     -0.06633383097284     -1.91294161226300
  H           1.98780795118612     -2.31982245125076      1.95712244189226
  H           2.88516232826989     -0.86944448182815      1.74288861720006
  C           3.53139526591440     -3.65978562514103     -3.96378929753034
  H           4.17788134838104     -3.70635745482445     -4.83792870450345
  H           3.18708910732429     -4.66690304499773     -3.70811708444972
  H           4.08849468684075     -3.24241705581370     -3.11932764770907
