22
Coordinates from ORCA-job NEB_product E -39.923557379060
  C           2.24100565939101     -1.38030214654943     -1.36573233869855
  C           1.55962827756276     -1.36164180053509      0.03297911815892
  N           2.47053244290597      0.03204475055314     -1.73578948789010
  H           3.22682958384790     -1.84196905730296     -1.24989796643116
  N           2.33720101137984     -0.77859651071696      0.96142357763581
  C           1.39797953332108     -2.11060276820844     -2.42797693493790
  C           1.04001151853215     -3.49461498728593     -1.95514300045962
  C          -0.13119992672366     -4.05313866034924     -2.18998412293940
  O           0.47914821069385     -1.84730981059512      0.23758457265131
  O           2.06772658328196     -2.08892660682084     -3.67830184446671
  H           0.48522959712099     -1.53106264219634     -2.60463552251368
  H           1.81694080531755     -4.03269488213335     -1.42838659993286
  H          -0.35776055911234     -5.05234387260097     -1.86070863638999
  H          -0.91240293077675     -3.52659099605122     -2.71092368746673
  O           3.46133174572459      0.54025109255312     -1.24663598201618
  O           1.66457146529229      0.59821399374985     -2.41868433148269
  H           1.96752283386059     -0.65676058937792      1.89037248701926
  H           3.16918009005080     -0.26694145442795      0.70318906073854
  C           3.07372155415765     -3.05442431183384     -3.87984168821642
  H           3.48676186009463     -2.83953837458594     -4.86331862432477
  H           2.66293649126730     -4.06891240177678     -3.87405583366284
  H           3.87650415280983     -2.98743796350780     -3.13693221437424
