15
Coordinates from ORCA-job NEB E -27.420715142970
  C           0.63266292328282      0.70583538017790     -0.23749507037511
  C           0.36815807574756      1.72339800279771      0.73870452623673
  C           1.04157246769620      1.01210031453605     -1.50333331149529
  H           1.82872662817203      0.30254501078094     -1.92262453027230
  H           0.48305953375019      2.75574579687029      0.37031555268953
  C           0.50586269738276     -0.74109813982676      0.18881167968360
  C          -0.89106687306530     -1.23978697880291     -0.04303271396162
  C          -1.81908911725211     -1.23458780244718      0.89363512696106
  O          -0.00182724383416      1.47960163188500      1.86842420731638
  F           1.40447935325599     -1.50154547099681     -0.55520582542406
  H           0.79260418783909     -0.83734633623387      1.24252471445834
  H          -1.08982335940815     -1.57095154659780     -1.05297373253971
  H          -1.60889841655554     -0.88549087888333      1.89059477669279
  H          -2.82502462262957     -1.55927509082438      0.69296339233033
  N           1.17860376561819      1.59085610756517     -2.57130879230069
