15
Coordinates from ORCA-job NEB_reactant E -27.527702314100
  C           1.81781604822123     -0.10904325959758      0.15025316868145
  C           1.73258244020642     -0.07248771049033      1.48916108244996
  C           1.51543231810995     -1.17828642791664     -0.70464163884416
  H           2.16084199629859      0.77888708257037     -0.36177668815680
  H           2.00819528661519      0.83855384267140      2.00816878202720
  C           2.51317327810783     -4.09257811663407      2.58961389976785
  C           2.13564102370444     -3.16657875592481      1.72918650318266
  C           0.94561125585289     -2.28830780496974      1.97035006352917
  O           1.33148651148616     -0.97935630228350      2.38033638568302
  F           3.58626386821627     -4.86127799241842      2.37619425548236
  H           2.01720684841968     -4.33825878708777      3.51842896773605
  H           2.70320940118195     -3.00213230689088      0.82553051204698
  H           0.35239195686551     -2.67175494546364      2.80417020325109
  H           0.32346692591687     -2.23491388059774      1.07099726785639
  N           1.29008084079700     -2.02196463496665     -1.45197276469325
