21
Coordinates from ORCA-job NEB_reactant E -41.746221114380
  C           2.09431772937344      0.22825780177504     -0.32588944693508
  C           1.55835115569504     -0.31452380620641     -1.44262372699032
  C           1.66428870119917      1.36276835076763      0.52372240157060
  H           2.98047478698350     -0.27001175889184      0.04185466604565
  C           2.24800500471909     -1.48953687937113     -1.89995763342053
  C           0.28214454073047      2.63958868082586     -4.39555384526483
  C           0.75119149019587      2.07700588273156     -3.29458135945376
  C          -0.07135544140117      1.23779012409699     -2.36408953136308
  O           0.50501499586032     -0.06004849840082     -2.21734163491663
  C           1.08582371231615      3.48708844854324     -5.31958696051453
  H          -0.75785920978666      2.50845099749832     -4.66635147556453
  H           1.78969884833533      2.19477651138035     -3.01558052825837
  H          -1.05858505442231      1.04486364792678     -2.79031080585086
  H          -0.19113177860706      1.73010246744325     -1.39691953537724
  Cl          1.88067553215033      2.96554009858536     -0.26578074990423
  Cl         -0.05135110211708      1.21439128780754      1.03600037858415
  Cl          2.64592551804348      1.38977214225155      2.01083369265825
  N           2.79770746501891     -2.42428232559261     -2.26301493176285
  H           1.07519635564277      3.05906861813787     -6.32129519132775
  H           2.11507273280205      3.57039753073432     -4.98109137915652
  H           0.65269401726835      4.48464067795714     -5.38444240279752
