27
Coordinates from ORCA-job NEB_product E -46.259854836270
  C           2.61480905961080      1.61570084838137      0.77688350025130
  C           2.24777381420232      2.18136756664536     -0.59013026731907
  C           1.71449695145780      0.37862546271935      0.97054161759827
  H           3.65776827419267      1.28648500637226      0.75019333914275
  O           3.08201849218718      1.74681694585487     -1.52957079053826
  C           2.39474407679583      2.71630003349524      1.83483551185241
  C           2.11079622333900      2.19589740494327      3.21458610807062
  C           0.92596956878658      2.27938022570032      3.79000612640132
  O           1.29110090782046      2.88192718161797     -0.79507367563322
  C           3.58530809182756      3.66272347562074      1.90556847460187
  H           1.52798171273625      3.30514296982783      1.49844831086350
  H           2.94951222730885      1.75726378746672      3.73872989171511
  H           0.07985126874532      2.72390165595657      3.29193202159265
  H           0.75440914693386      1.90295260633932      4.78316159950824
  C           2.32902276638161     -0.67960840135655      1.87747685190822
  H           1.54423617298699     -0.07073395896843     -0.01100831204232
  H           0.74571887531498      0.69657949129264      1.35879320807449
  H           3.30317172440128     -0.98455058702023      1.50202875729602
  H           1.68439413651292     -1.55467597043776      1.90479261452366
  H           2.44658295887203     -0.31509658372452      2.89308109283954
  C           2.81997783022784      2.18719631673066     -2.85684537417032
  H           3.55304698531610      1.69453634154880     -3.48935946130789
  H           2.92861556696408      3.27193877238221     -2.91568579357617
  H           1.80530119712082      1.91511579201813     -3.15266108152063
  Br          3.22273612211741      5.08985498834887      3.19318514343491
  Br          5.21299444249988      2.75360368185622      2.48494929617271
  Br          3.99016140533959      4.51285494638877      0.19824129026028
