27
Coordinates from ORCA-job NEB_reactant E -46.218976612430
  C           2.53485321188565      0.05631315874769      1.06070959618493
  C           2.32192294002834      1.23466747020429      0.48893254931382
  C           1.53597179028720     -0.68069587115946      1.89312188517169
  H           3.49332700492331     -0.41329021581427      0.90296865863114
  O           3.32619445643856      1.89323277917918     -0.17344383578739
  C           3.20532872635053      4.14090545374193      2.02585499611317
  C           2.12607732942201      3.97520901204396      1.27771325792276
  C           1.09525747770238      2.92711206232387      1.56041327286044
  O           1.11716365945962      1.90459911374962      0.56935142036250
  C           4.31821689990837      5.07192412507178      1.75499048212526
  H           3.35183406342680      3.55269349199659      2.92448154160626
  H           1.97417730110248      4.54389771210427      0.37027428534104
  H           0.08932134508441      3.35141612663240      1.50288647848393
  H           1.25544734897362      2.48668765127481      2.55343704614024
  C           1.27316590703200     -2.07438842008374      1.32501252367779
  H           0.60271103475092     -0.11721840454602      1.92984578273062
  H           1.92238498043646     -0.78056680428079      2.91217894013393
  H           0.87122483600673     -2.00054015452136      0.31761226492905
  H           0.55692741527445     -2.60657482600902      1.94622780146099
  H           2.19473506815657     -2.65054929479425      1.28767399517671
  C           3.01035347988034      2.33582146169021     -1.48517306365974
  H           3.75530812820168      3.08469438965092     -1.74794569671655
  H           2.00989233701075      2.77266801347887     -1.52785492313222
  H           3.06577249403188      1.49971023538461     -2.18849539715850
  Br          5.99998806210706      4.05118453341809      1.63789918327356
  Br          4.14160413860421      6.09852253850662      0.12418573089760
  Br          4.49083856351364      6.35256466200918      3.25084122391698
