23
Coordinates from ORCA-job NEB_product E -51.108742627950
  C           1.32926592715135     -1.00230006426467      1.71940343887600
  C           2.75816312413892     -1.19747961016096      2.31853497418025
  C           1.33978166356005     -1.03627721946100      0.19630442074803
  H           1.12259999684747      0.05667812636016      1.94158249693957
  C           3.60171385258895     -2.34526881650675      1.85442374586240
  C           0.19643049283950     -1.76478451365737      2.48939810816871
  C          -1.03905821143423     -2.02154842003718      1.66387055121827
  C          -2.20641358187110     -1.46330788914798      1.92401872893221
  O           3.15123360784243     -0.36001707054917      3.08403275263550
  C           0.53860430216849     -3.07629925209782      3.21834224689454
  H          -0.08401423546726     -1.08875745583571      3.30662526538990
  H          -0.94236395499793     -2.74748971000358      0.86982728131711
  H          -2.33632382897908     -0.75299223064757      2.72346223739047
  H          -3.07604315495734     -1.68383046715154      1.33125248289136
  Br         -0.22641678298454     -0.12106525028554     -0.56480202223799
  Br          2.86836505366904      0.04508716132621     -0.43106616301154
  Br          1.46458966226318     -2.76273773366071     -0.66956448025523
  H           4.38878511885795     -2.50894129003849      2.58735538677258
  H           4.08810066253572     -2.08570719823156      0.91425194017058
  H           3.03541776662989     -3.25807265769647      1.70657339570483
  Cl         -0.90299751093195     -3.53075772960743      4.18841808761618
  Cl          0.88222267977224     -4.45029922132619      2.14957695665114
  Cl          1.87895735075826     -2.87913148731869      4.37367816714513
