18
Coordinates from ORCA-job NEB E -37.356727452590
  C           1.04821712746028     -0.09585314476341      0.56900676337060
  C           0.47188371489899     -1.36027263065572      0.33953861714375
  N           0.66626443324066      0.70095387881198      1.68803620857863
  H           2.10249923971738      0.00277648417775      0.33769839426712
  O           1.28497516580366     -2.24970686709812     -0.27653110692903
  C           0.02111857568352      1.01565073725287     -0.87951072473786
  C          -1.28149838764300      0.70653052809563     -0.49553691825916
  C          -1.75430119470546     -0.59887487021381     -0.62835220117898
  O          -0.75064111457307     -1.62342706006809      0.46638600771347
  O           0.45799940453381      2.27594067407623     -0.69103053000605
  H           0.48334927003896      0.45608062296617     -1.69042946836955
  H          -1.76147477496273      1.37655791978974      0.20025004061688
  H          -1.49188976811245     -1.16137098178958     -1.51555199944145
  H          -2.72438366558657     -0.83002098265514     -0.21802493424951
  O           1.51619249622716      1.46660060027039      2.10210809097214
  O          -0.44470936747012      0.58113483409664      2.15055511368658
  H           0.79831639316473     -3.06946512108133     -0.44826242955613
  H           1.35808245228425      2.40676537878779     -1.01034892362144
