22
Coordinates from ORCA-job NEB_reactant E -45.453117988990
  C           1.68104534954914     -0.27005735749417      0.22836663138899
  C           1.82412106155753      0.67769513887645     -0.71240270456635
  C           1.32143822639326      0.07451027346933      1.63214371653262
  H           1.81901768217645     -1.31459116690501      0.02351045015475
  C           2.24201881744613      0.28495525412621     -2.10897430135132
  C           3.78690778667466      3.34636565702796     -2.81672509846315
  C           3.26778941909001      3.26573429927164     -1.59156848031003
  C           1.81786860198687      3.01119481411901     -1.32591766506781
  O           1.60265938393794      1.95172138359534     -0.38805188915515
  N           5.12495671445771      3.49391309453134     -3.10131861988468
  H           3.15631821949265      3.23297570696603     -3.68962134650158
  H           3.89138317842673      3.37633965729234     -0.71630113417941
  H           1.27297849831895      2.82369053716466     -2.25567286010926
  H           1.36486872190848      3.87057851525828     -0.82012785623515
  F           1.26790035253690     -1.02199054781358      2.40717453165789
  F           2.20947815234360      0.90110779399745      2.21966850241539
  F           0.12497917818672      0.67676723327535      1.75398876282973
  F           1.26342852714818      0.58915635187174     -3.02754811525548
  H           2.40695453879179     -0.79279165082516     -2.16739953281221
  H           3.14123785511412      0.83316805021968     -2.41261445446496
  H           5.70246415697886      3.78981271610651     -2.32894392025463
  H           5.35218557748332      3.93754424586859     -3.97606461636820
