20
Coordinates from ORCA-job NEB E -37.567403882860
  C           0.66741144009451     -1.01173133219870     -0.37004877064146
  C          -0.54948021665521     -1.39344367366018      0.22207085251580
  Cl          2.14179622915403     -1.31202316360619      0.51825163754899
  H           0.80170881642969     -1.22690740242572     -1.42485874344166
  C          -1.76123960502977     -1.61274901967221     -0.66496573077524
  C           0.46656697280321      0.89286807125408     -0.27566151717795
  C           0.25773922202494      1.09625785814703      1.09536651990160
  C          -0.89589356681139      0.53857088377584      1.69483057696919
  O          -0.77313691900941     -1.10187167034110      1.46168424882719
  C           1.68628521471090      1.49990421599396     -0.93271766163667
  H          -0.39583325192035      0.96216061513721     -0.93338521122089
  H           1.12398015101725      1.27709521772030      1.71428581542026
  H          -1.84465567320737      0.71306564999705      1.19354849663597
  H          -0.97047787333542      0.60502617874200      2.77206279444825
  F          -1.45656383037894     -1.50228151375462     -1.99640556875345
  H          -2.53828358020539     -0.86777270121115     -0.44577906784062
  H          -2.17350877235097     -2.61545695516773     -0.50663351245177
  F           2.70553337698067      1.70893236900875     -0.04605587242538
  H           1.42494259261688      2.48371384378836     -1.34293764920102
  H           2.08310927307216      0.86664252847302     -1.73265163670112
