20
Coordinates from ORCA-job NEB_reactant E -37.604826078590
  C           2.48339069416639      1.08380915469123     -0.75349167876364
  C           1.29476528919497      1.68151708154428     -0.72815672520861
  Cl          3.89024211823628      1.45210088902779      0.17915556644102
  H           2.64465664771000      0.26712627700783     -1.43703314198498
  C           0.19000768359472      1.19124919858879     -1.64309789334018
  C           2.78024162300541      4.56565102712502     -0.88552406876983
  C           2.66151814904020      4.25431150230736      0.39312293081901
  C           1.60075489549885      3.36587151911703      0.96967794882360
  O           0.79604257571186      2.70460178947930      0.00878918027348
  C           3.84606955035324      5.45246457778628     -1.44247732118820
  H           2.10082254606593      4.17724080337452     -1.63093879059044
  H           3.35242257226633      4.65440897024489      1.12104479279043
  H           0.88805547343112      3.97721423022902      1.53608923628134
  H           2.05015491563553      2.64411119153503      1.66059203183649
  F           0.64516782026967      0.32325455919326     -2.59258892522773
  H          -0.26379289646349      2.04193837682422     -2.16270033323282
  H          -0.57819540021231      0.66680647400245     -1.06332463835857
  F           4.64134913322465      5.98677595438306     -0.46164725976675
  H           3.40630853487543      6.29651066547122     -1.98866245405616
  H           4.50671807439520      4.89153575806741     -2.11612845677743
