20
Coordinates from ORCA-job NEB_product E -37.606424541140
  C           2.15598527543299      2.46700913928070     -0.93444468410647
  C           0.82601889371835      2.46189137547986     -1.68504283095669
  Cl          2.02518195353904      1.08853790076411      0.21415087060885
  H           2.98987626026851      2.23016694065398     -1.60016409730371
  C           0.71664365404296      1.33383182514304     -2.69723531855362
  C           2.41150581793447      3.75703601143139     -0.15414415514109
  C           3.61770218493935      3.60702829762543      0.73037345280355
  C           3.59854823495089      3.78470238142746      2.03633841270895
  O          -0.04407986135588      3.25542629132369     -1.47531692501410
  C           2.62781979098616      4.91536918403723     -1.13835159624174
  H           1.53107562501269      3.98590499583978      0.45415391456305
  H           4.53497455777668      3.34962786091173      0.21692141894806
  H           2.69448333723047      4.04712551363025      2.55988099532606
  H           4.48592525271179      3.67912973834405      2.63561481632268
  F          -0.48913560620160      1.35311317738727     -3.33003033699813
  H           0.81783721830320      0.36342055891465     -2.19864622713877
  H           1.49251451034563      1.44040076193069     -3.46516967736122
  F           2.84367015245364      6.07583561973651     -0.44645436888371
  H           1.74509825768478      5.07870601401571     -1.76363007705168
  H           3.51445449022589      4.75043641212247     -1.76150358653026
