22
Coordinates from ORCA-job TS E -31.708484723960
  C          -1.10118546884384      0.75648221686042     -1.61684013495058
  C           0.09964565690514     -1.60849765769530     -0.50920486797003
  C          -1.22668903373405     -1.51819705482673     -0.76285307067544
  C          -1.82157517788190     -0.37840580090236     -1.34327711598820
  C          -0.53804059682803      1.32315826952935      0.45308334019423
  C           0.17415897540748      0.30542809917668      1.01498909947611
  H          -1.89477087262886     -2.27318214833267     -0.37049901410482
  H          -2.90138682186366     -0.33522795079440     -1.39231525165692
  C          -1.75578811653731      1.91348493022853     -2.08429235773088
  H           0.49055589051655     -2.44488798834045      0.04607893128581
  H          -0.03881565003404      0.72079779297393     -1.81202652407311
  H           0.82724999236181     -1.02153594460341     -1.03861046818078
  H          -1.55811039190374      1.51033893100311      0.74408986963097
  H          -0.28474611153665     -0.36870428088486      1.72108825156460
  H           0.00081176704607      2.14804322984631      0.01485381602384
  C           1.63983209964966      0.28226496118265      0.88641377338457
  N          -2.29433947146445      2.85549127953591     -2.45608058374662
  O           2.22642853271474      0.90939058780539      0.02925423182482
  C           2.36026554548472     -0.54786568336015      1.92111457062589
  H           1.94917052361160     -1.55265745323548      1.96669459214445
  H           2.22600937597836     -0.08374066362800      2.89701267320433
  H           3.42131935358041     -0.59197767153849      1.69132623971778
