25
Coordinates from ORCA-job NEB E -31.673872523090
  C           0.70196360585572     -0.91761778856091      0.20406501293755
  C          -0.68991657283845     -1.10473054598960      0.11010389508378
  N           1.39548286516547     -1.13576093872302      1.41999880572430
  H           1.30050804749934     -1.15616968677543     -0.66924779841171
  C          -1.37021264367265     -1.38033598652314     -1.21818338751232
  C           0.67642614066900      1.07561786557535      0.22502550295462
  C          -0.10903579086465      1.31035441320996      1.35461367315521
  C          -1.46378884453720      0.93625582190610      1.33686232632687
  O          -1.40799889602021     -0.78124164337760      1.13566913441683
  C           2.13679491033298      1.43160894880692      0.24803255007884
  H           0.20636438284915      1.23439301720369     -0.73697190114293
  H           0.39141378691596      1.36338408849309      2.31145195935219
  H          -2.04439050157376      1.16858139136686      0.45217175084429
  H          -2.02852787797052      1.01949395500010      2.25475319185723
  H           0.73442201439427     -1.19314814636036      2.18728495683783
  H           1.96962464347172     -1.96756546942426      1.38584369981527
  C          -1.14675446705285     -0.35502090491697     -2.33008410834591
  H          -2.44001876751600     -1.46418496324033     -1.01601483971830
  H          -1.02085642152234     -2.35497841923522     -1.57303535387706
  H          -1.54476380324395      0.61814704392660     -2.05215029411285
  H          -1.66039693198449     -0.68181373337988     -3.23220809360355
  H          -0.08908567483273     -0.25198937665226     -2.56044823731519
  H           2.65073488271875      1.03484812025688     -0.62395706727526
  H           2.60671676058259      1.03608507597078      1.14411573422279
  H           2.24529515317485      2.51578786144264      0.24230888770748
