21
Coordinates from ORCA-job NEB E -37.507361063850
  C           0.42886258135276      0.65482647519694      0.25546897563594
  C           0.80108229940128     -0.53155185756565      1.02013262218921
  O           1.34486566618646      1.26970417290407     -0.46295829053584
  H          -0.55335729113761      1.13696686896704      0.32573646013663
  C           0.79886023280555     -0.34136598350005      2.49893793270927
  C          -0.50426617290088     -0.90592088346188     -1.96333162979335
  C          -1.42029533064178     -1.10500036395290     -1.03278075374994
  C          -1.10353674219542     -1.78408684381572      0.26577885686188
  O           0.27468569433209     -1.75982266057855      0.58887898277164
  F          -0.78751261676692     -0.25598965882098     -3.10909053382186
  H           0.52784622215064     -1.21723069616771     -1.90871490796845
  H          -2.43638031688070     -0.76971716174851     -1.18096902247528
  H          -1.36607730712338     -2.84614474345179      0.20180080992825
  H          -1.69754549483970     -1.33090210598724      1.07156192031337
  C           0.97361290824183      2.41700103973033     -1.19922532396479
  H           0.50997488380061      2.11827358704726     -2.14444405313831
  H           1.88731169999001      2.97157548799108     -1.40539484280491
  H           0.27349318561640      3.04192581492912     -0.63881114359040
  F          -0.45472108156051      0.10267187488770      3.00262374515354
  H           1.50974808087298      0.42529806830428      2.81457861156377
  H           0.99334889929628     -1.29051043090683      3.00022158457962
