21
Coordinates from ORCA-job NEB_reactant E -37.614090770140
  C           1.46941031025763      0.16914765023047     -0.03487446100759
  C           1.38211145398968     -1.16320147881396      0.02655550499174
  O           1.24235092187619      0.87252718129398     -1.16520131597380
  H           1.74131377628160      0.73164341168489      0.85176338854492
  C           1.55570805543699     -1.89674352382064      1.32897582225186
  C          -0.71567110000432     -4.60393698014711     -2.26583455523044
  C          -0.27642798977223     -3.36304578425527     -2.33407989317663
  C          -0.19533263182379     -2.45615255718230     -1.15200159149002
  O           1.12611071740851     -1.92643573689089     -1.09207876684711
  F          -0.79152406384349     -5.38889580148939     -3.35212322941591
  H          -1.07329155928239     -5.10906947670327     -1.37974039908711
  H           0.07052737109154     -2.95246382654486     -3.26973059906467
  H          -0.44299068943688     -2.99643452491544     -0.22912845099937
  H          -0.90877734450027     -1.62628176121425     -1.27156941554309
  C           1.57775043501463      2.23995945458185     -1.11224035196010
  H           1.26334865463940      2.66828383517765     -2.06195792782948
  H           2.65692136984565      2.37930764463887     -0.99160205943439
  H           1.05637774708861      2.74696301496543     -0.29359810070462
  F           0.38887100170922     -1.87265028446768      2.07799509519654
  H           2.32480222963356     -1.43750005439513      1.95554588778861
  H           1.78761133439016     -2.94992040173296      1.14712541899066
