21
Coordinates from ORCA-job NEB_product E -37.621898575930
  C           0.62917774149401     -0.68385031576239     -1.12555697981769
  C           1.46019723380253     -1.23839643847737      0.03389904039233
  O           1.44225493239007     -0.14158011762198     -2.13230980365647
  H          -0.08637226472878      0.06509287199137     -0.75147495832321
  C           0.83036981384123     -1.18613080347114      1.41796091418289
  C          -0.16347261421717     -1.84602487003190     -1.77314632627340
  C          -0.70341279780593     -2.82004484717729     -0.77084633053734
  C          -0.13922667720201     -3.98342674219179     -0.50823058735204
  O           2.56893452666036     -1.67650412475359     -0.11045630278750
  F          -1.21130327864539     -1.29928375944581     -2.48098271054778
  H           0.49683641733347     -2.32536628449588     -2.50489131161468
  H          -1.60572315778092     -2.49618259954933     -0.27150064446002
  H           0.75787355467852     -4.30588726879943     -1.01068537005202
  H          -0.54878776294002     -4.65657649397068      0.22498172276868
  C           2.04773427644875      1.08211429725712     -1.78826807569970
  H           2.57576185582972      1.41494431053354     -2.67871807182400
  H           2.76214958747359      0.96270142403829     -0.96653511670834
  H           1.29581670302086      1.82947148605252     -1.50712840688006
  F          -0.45217582146184     -0.71606818022922      1.41295303218390
  H           1.42218668842075     -0.51875913502198      2.05626433549787
  H           0.81688104338820     -2.18894240887307      1.85747195150855
