83
Coordinates from ORCA-job A2R E -109.247786040690
  Ru         -0.52149734888730      2.19224804560719      0.03235109435698
  H          -0.52124594520650      3.71935133508543      0.25074831696013
  N           0.82302816467739      2.12727187496067      1.60683286772046
  C           0.42224140549009      2.43081508742219      2.85663908039461
  C           2.11705830114962      1.81078943253492      1.41247586655531
  C           1.29025682014115      2.40136471827041      3.93792721958094
  C           3.03054527281436      1.77100515865264      2.45677344185387
  C           2.61864652859143      2.06159433479932      3.74520024856705
  H           0.92208297094949      2.65006166603921      4.92196675840665
  H           4.05542501780293      1.50494318430009      2.24982301611778
  H           3.31034740282415      2.03016500234237      4.57244636972080
  P          -2.05102943948820      2.10881878904335      1.72382873290216
  C          -3.57868844541811      3.23860813793294      1.75321261478890
  C          -2.52681110479977      0.42457206091358      2.49804524534038
  P           1.40530308803504      2.35596343568852     -1.13691851361304
  N           1.92967299445652      1.66265169035629     -2.60308486456783
  N           2.19053680726850      3.83414999007038     -1.22210418170817
  C          -1.00143382100461      2.85134872495660      3.05607713725822
  H          -1.05817323065239      3.93285156200047      2.87965904985592
  H          -1.34676167803660      2.64160541090113      4.07195673192451
  C           2.55663528603983      1.49260865273282      0.02227084900271
  H           3.59855893876116      1.77967166573460     -0.14742731226388
  H           2.46769059717616      0.41662392520506     -0.16509068332908
  C          -1.71055631787991      2.33062380155269     -1.36198696912260
  O          -2.46010528223362      2.45262470762448     -2.23968463971417
  H          -0.40115550645790      0.64169442147296     -0.13110870341752
  C          -4.04579594477302      3.67514094499933      3.14261207491792
  C          -3.22410280676948      4.50027268518898      0.96303160135025
  C          -4.69991538590414      2.52373543436018      0.99727566438866
  H          -3.28086719283338      4.25722739542286      3.65149982410552
  H          -4.92326318234879      4.31193901026896      3.02917787907814
  H          -4.32525460949136      2.84049899109618      3.77405326907236
  H          -2.95756260264030      4.24708513822707     -0.06100500716907
  H          -4.08167442135844      5.17255726250555      0.94311892810140
  H          -2.38706547637779      5.03385426088500      1.40851849122417
  H          -4.30386415498175      2.09251597940528      0.07623291837282
  H          -5.15386427888761      1.73664687512867      1.59376941251597
  H          -5.48282194770469      3.23344537039793      0.73137523069927
  C          -1.20642528904917     -0.19593511164349      2.96707469291504
  C          -3.48437797757071      0.43625201697609      3.68682704768159
  C          -3.09857610318292     -0.44127410539292      1.37354070225475
  H          -0.84934427742709      0.26280758090041      3.88761004364525
  H          -1.33998754320721     -1.26091139730563      3.15568651577293
  H          -0.44209467598355     -0.08456737728641      2.20045529483075
  H          -4.48922786313154      0.73243979418953      3.39978864715721
  H          -3.54565949443494     -0.57420504915303      4.09266984885559
  H          -3.12942101810331      1.08870454235248      4.48228630707925
  H          -4.11848487966740     -0.16018590740769      1.12736566086661
  H          -2.48794245753835     -0.32783222062396      0.47737367792098
  H          -3.10016074865744     -1.49092168410701      1.66709455481606
  C           1.52127021948490      5.04250571778463     -1.67387523359674
  C           2.07404211868570      6.25517534538063     -0.93462944646551
  H           3.14099191334777      3.75186051876873     -1.57486324313712
  H           1.62751264912720      5.19213570001682     -2.75709029279583
  H           0.45814689808765      4.91806232626157     -1.44535333394160
  H           3.13429203235668      6.38244081292238     -1.14564348012207
  H           1.54671215503744      7.15449213157618     -1.24158513068032
  H           1.94784004334770      6.12049062463291      0.13642854286666
  C           1.51609192463304      0.31897152964345     -2.97973566620400
  C           0.16801546179022      0.28327958359871     -3.68396096007074
  H           1.72936366301278      2.31083361964790     -3.36350099017384
  H           2.29418198206575     -0.10150146553124     -3.62776864085652
  H           1.46927606578118     -0.28235220288867     -2.07146663444814
  H           0.19608898165068      0.87618803010650     -4.59709685258671
  H          -0.09824720521195     -0.73931359537957     -3.93858544799941
  H          -0.59501492145779      0.69221397910896     -3.02266663316312
  C           1.78401224366996     -2.45187712677744     -0.56702031226341
  O           2.98315710568578     -2.29306816359236     -0.66824145093586
  C           0.96235856817253     -2.92060958361991     -1.71204271723338
  C          -0.42214866361688     -2.76743234405024     -1.76127702960673
  C          -1.12831207784087     -3.21097993216896     -2.86432988202178
  C          -0.46882907734994     -3.81663719603671     -3.92216616003334
  C           0.90837644421202     -3.96775851162612     -3.88367743439861
  C           1.61880160694715     -3.51688710880362     -2.78896307561724
  C           1.05050338154760     -2.16014415877805      0.71259822767633
  H          -0.95033810181132     -2.27800148620879     -0.95881005365418
  H          -2.19966199522546     -3.07938220988052     -2.90146312945924
  H          -1.02761332262691     -4.16407644720421     -4.77884716588055
  H           1.42520194742228     -4.43403185694814     -4.70937912599974
  H           2.69287572737168     -3.61994163088450     -2.74116759526939
  H           1.76150882716177     -1.99037546162028      1.51818736640733
  H           0.37603628196974     -2.97107470505681      0.97372371041063
  H           0.46058997848334     -1.25392197797791      0.56440721722969
