83
Coordinates from ORCA-job A3R E -109.208608502250
  Ru          1.97829239522441      3.60396126577835     -0.01143922938453
  H           3.28017578105904      4.34808840378710      0.01290838066610
  N           2.69740785398940      2.49324316698621      1.61682106957918
  C           2.80318890186949      3.02283981384951      2.84045298237947
  C           2.98881538379472      1.16605687433461      1.42125137678003
  C           3.07791787563139      2.26466375448700      3.96021223176183
  C           3.21634056159026      0.33922113411517      2.55746378307275
  C           3.25496310582276      0.88249944456782      3.80655131546591
  H           3.15593168190351      2.72875739456623      4.93059965040358
  H           3.37614153441118     -0.71547078556025      2.39448088608937
  H           3.43717953059530      0.26453209845732      4.67383123837767
  P           1.39587355606428      5.07313838020132      1.69422061483785
  C           1.81189339290478      6.91724851155953      1.50416227528983
  C          -0.23127129257537      4.90007159557233      2.67577657245717
  P           3.17397050362716      1.95492215454307     -1.10057888203944
  N           3.06718180148433      1.13082541223019     -2.58748404397270
  N           4.81211517387578      2.34625018345101     -1.11706542321495
  C           2.63781897368521      4.51397153174449      2.94255077067017
  H           3.58692804879102      4.97349249802318      2.64180566428403
  H           2.39972815885781      4.82926974916743      3.96105513607472
  C           3.02954508901983      0.67732440641896      0.11389131702768
  H           3.38324791382720     -0.32427309327122     -0.09079113674441
  H           1.28662599592489      0.24591790763636     -0.18692990827593
  C           1.44048057520738      4.58271427085701     -1.46942783124386
  O           1.21010785536955      5.23817171810243     -2.39689434414847
  H           0.38372364203887      2.21442605704652     -0.02128565541244
  C           2.17364436312622      7.63249238486098      2.80693647287528
  C           3.02103433616369      7.00823764173748      0.56908246903705
  C           0.63968711530146      7.61465183667245      0.81333387405693
  H           3.03902138836451      7.17664142436646      3.28145031912408
  H           2.43049747869541      8.66621631612945      2.57645022312939
  H           1.35497218802272      7.64948308434794      3.51645307870963
  H           2.78140952412508      6.59516407911880     -0.40970997674702
  H           3.30813216573426      8.05147631591979      0.44322311930791
  H           3.87816447645027      6.46835498149134      0.96747501566017
  H           0.31587819038790      7.03028570345600     -0.04830738432484
  H          -0.20131043773041      7.75737898705908      1.48695597808848
  H           0.95038236239135      8.59625690758696      0.45778133794477
  C          -0.19290516451668      3.48044462001398      3.25029646712625
  C          -0.46948850365564      5.87381667129307      3.82542485787255
  C          -1.38183608358264      4.99101392561097      1.67237989055168
  H           0.44507192473054      3.42214837030071      4.12937474077786
  H          -1.19383533144666      3.16368478489103      3.54222638177266
  H           0.18204654603935      2.77477627436952      2.50852178998783
  H          -0.66268113029161      6.88229360476415      3.47034746810632
  H          -1.34939244483850      5.54758038100096      4.38070430331715
  H           0.36943460161747      5.89013145192365      4.51764803332228
  H          -1.50769473200016      6.00106568207882      1.29312607133376
  H          -1.19099825289429      4.33185938180262      0.82545319124024
  H          -2.31868413997620      4.68805155020656      2.14007583535578
  C           5.32404686670851      3.48542995697847     -1.85936809366511
  C           6.50618000219780      4.10510325425233     -1.12357518672613
  H           5.41161829056874      1.52672611548667     -1.16528045939406
  H           5.62967199159252      3.21416185567791     -2.88037670304479
  H           4.50542892830735      4.21266883208051     -1.92205058183126
  H           7.32415875567999      3.39186114618880     -1.04726655940739
  H           6.85859851512419      4.98800082862346     -1.65053347658771
  H           6.19904716598097      4.38867387307355     -0.12063998202690
  C           1.82769366982600      0.71531212248068     -3.22268781142890
  C           1.16216256359234      1.84448837373352     -4.00013057260677
  H           3.64607907585874      1.62472320152606     -3.26424052857551
  H           2.06724244682835     -0.11122433738613     -3.90240725521459
  H           1.15486780064015      0.33703698369201     -2.45366996839596
  H           1.80229286951064      2.17819914059024     -4.81609151423110
  H           0.21112574181224      1.51715070330137     -4.41157922476904
  H           0.97957021114686      2.68959179445304     -3.33746415940475
  C          -0.35216113662145      1.36032438067922     -0.23929112812539
  O           0.32701007778740      0.15663934724932     -0.45778527351751
  C          -1.16939000574175      1.73377248815776     -1.45801965530282
  C          -1.37538326280812      3.05387869343567     -1.82565248660118
  C          -2.16150283917038      3.36570703375687     -2.92027121722334
  C          -2.75111469216750      2.35475332462407     -3.65916214367577
  C          -2.54944130876358      1.03306706247017     -3.29836376293881
  C          -1.76674972097236      0.72356883198586     -2.20146119452624
  C          -1.30953352670113      1.17820204569299      0.94727890458634
  H          -0.90248194364525      3.85049364817677     -1.26138858936206
  H          -2.30505710657825      4.39886654798632     -3.19959909597109
  H          -3.36126242999859      2.59626569517117     -4.51715353075346
  H          -3.00264833627873      0.23953414372304     -3.87475458444767
  H          -1.59555939910287     -0.30352308394994     -1.91748721728914
  H          -0.76014114671484      0.86591582072709      1.83325492223683
  H          -2.01054422186154      0.38692686084503      0.68901160493619
  H          -1.86610833024800      2.08747310486149      1.15376415687820
