83
Coordinates from ORCA-job A3S E -109.208584713190
  Ru          1.83927326253045      3.56322059302011     -0.08123410217130
  H           3.15628455488682      4.26361538486414     -0.26163581288669
  N           2.65228827960816      2.57491109174180      1.58315202558703
  C           2.85232061464819      3.20500455605999      2.74552223133153
  C           2.84094238748121      1.21605494063415      1.49966531634313
  C           3.14095788167777      2.53515960385206      3.91681892095766
  C           3.08552857490250      0.48404176930957      2.69781926484279
  C           3.22706684574024      1.13609613248180      3.88531236756529
  H           3.29669886383291      3.07842434977754      4.83519173691393
  H           3.17265242428734     -0.58995758204628      2.62833526677471
  H           3.42119787108930      0.58937288723894      4.79691707027263
  P           1.47829096658995      5.21993397873827      1.50683322458959
  C           1.97099044776027      7.00908778813434      1.10088041104128
  C          -0.08984422279528      5.24709324250667      2.59053719786399
  P           2.91096544602166      1.76831077568889     -1.08401582535578
  N           2.73545690219046      0.82873375886029     -2.49589846941630
  N           4.56644942926034      2.07607174770482     -1.15628912061204
  C           2.77916891545429      4.70699472996969      2.71367129047609
  H           3.72591574049223      5.07794081782466      2.30284137523921
  H           2.63478921011635      5.13079956215567      3.71013987681686
  C           2.76118114254164      0.60944330853909      0.24745276379141
  H           3.01800934551909     -0.43289385002416      0.11595509437220
  H           0.93167719474878      0.36720798331309     -0.10620247017605
  C           1.09791703140060      4.40927887901175     -1.53114090321729
  O           0.63939990561330      4.95624729081382     -2.44515097003825
  H           0.33502021112547      2.48494479117562      0.17088067150752
  C           2.47137465070684      7.81714713873098      2.29943916411046
  C           3.10291181835021      6.94809052518224      0.07209901757372
  C           0.78252973055800      7.70304715204771      0.43439891236930
  H           3.36777936113506      7.37384366885270      2.72626775324723
  H           2.72832386007149      8.82068351251201      1.96084684228965
  H           1.72597122625537      7.91473570747807      3.07969230593367
  H           2.76233038581427      6.46510710722432     -0.84279234380366
  H           3.43088610824788      7.95834283361717     -0.16976244858183
  H           3.96120133967372      6.39655771639051      0.45133907156859
  H           0.36018903901900      7.05692046546253     -0.33529626764153
  H           0.00679753061048      7.96013905987607      1.15046559745112
  H           1.11270519298393      8.62509938583270     -0.04239905721752
  C          -0.08406199332298      3.90676268741344      3.33006317821998
  C          -0.22295957633824      6.35409244667995      3.63175820177201
  C          -1.28372760418164      5.28120694352321      1.63443531414876
  H           0.61402771262563      3.91297878121615      4.16404855781011
  H          -1.07520095675064      3.68657276490952      3.72473120409079
  H           0.18868921267927      3.08993245226594      2.66250814595910
  H          -0.36416998032746      7.33095161663969      3.17808934028279
  H          -1.10047934655906      6.14697970177220      4.24497485158794
  H           0.64044582495317      6.38529892598945      4.29310227433434
  H          -1.43799069124025      6.27414462957777      1.22126163104378
  H          -1.11553340912599      4.59096361706221      0.80606304282246
  H          -2.19393388286498      4.98239644256280      2.15280842017131
  C           5.12331120419621      3.09616145669125     -2.02739526825464
  C           6.34688168184942      3.73152233428470     -1.37779773934982
  H           5.12753683016631      1.22999258280447     -1.10878931431556
  H           5.39898051830720      2.69747042606869     -3.01505610169788
  H           4.34177242416576      3.85308382304984     -2.16254880732291
  H           7.13090896737301      2.99091021386902     -1.23438693107106
  H           6.73212482794614      4.53441535408405     -2.00085314872091
  H           6.07091072337213      4.13555271638818     -0.40758182090023
  C           1.48417728455368      0.54044804573794     -3.17684082715473
  C           1.06152207058850      1.66247252584242     -4.11985857415601
  H           3.41846501927289      1.15752521759076     -3.17495726432254
  H           1.62527580242613     -0.38579693487188     -3.74678978331056
  H           0.71618283754295      0.36226734197415     -2.42474810384517
  H           1.78580330438214      1.78039816516477     -4.92527812915019
  H           0.09011609459736      1.44759908432375     -4.55833980451239
  H           1.00517347501509      2.60420892962517     -3.57507322041538
  C          -0.51525121981038      1.71757358770684     -0.00027355243224
  O           0.01050730716641      0.50461754030669     -0.45955210406916
  C          -1.22947213544294      1.49097372117783      1.32216873152824
  C          -2.49754464973053      1.98926111135400      1.59294877098699
  C          -3.11552218325372      1.71953685174837      2.80250480434106
  C          -2.48002934653709      0.94945589352989      3.75988827896949
  C          -1.21762816685770      0.44508613529158      3.49855216067777
  C          -0.60150694946938      0.71084257119499      2.29073178967004
  C          -1.42021184545316      2.26734549071877     -1.10313097314360
  H          -3.01968013758053      2.58919860709915      0.86519136081075
  H          -4.10351718347504      2.11341865880138      2.99429525792437
  H          -2.96577616040398      0.74106226646458      4.70180478039630
  H          -0.70859876460899     -0.15798518217715      4.23577652943012
  H           0.38393699344413      0.30843698966972      2.10407106095967
  H          -0.85241734884656      2.32192386815332     -2.02911277963236
  H          -1.79435825713515      3.26012521627852     -0.86829880098775
  H          -2.25391779745739      1.58443157588858     -1.25217161888547
