83
Coordinates from ORCA-job TSA2R_3R E -109.204159279940
  Ru          0.10130870350771      0.56309047532632     -0.28500296961846
  H          -0.09246761003719      2.06040932214409     -0.25414929249933
  N           1.40257048796242      0.82569044514840      1.34192053158682
  C           0.95286293190186      1.21743719427486      2.53700400669678
  C           2.72089748674771      0.54667545503170      1.16935419068423
  C           1.77297993547660      1.27610353422144      3.65149391330691
  C           3.58726554328102      0.56017243769985      2.28124048906758
  C           3.11259171220511      0.91533633852268      3.51765254789466
  H           1.37687289116821      1.59694641467809      4.60208520729104
  H           4.62213014044079      0.29477010475627      2.13258339498696
  H           3.76700729866775      0.93258300531973      4.37661795243212
  P          -1.48406636846278      0.62456105551601      1.41908643557264
  C          -3.03564589554892      1.70258217361589      1.19943995511082
  C          -1.93555639481348     -0.88825229314809      2.49384591548452
  P           2.08933032720975      1.01858328782640     -1.36072123028259
  N           2.81310534575557      0.62527746664290     -2.84361485951504
  N           2.52227549102222      2.63953359650100     -1.24211135297718
  C          -0.48847678110433      1.62807548400298      2.61726664690205
  H          -0.56002655253837      2.66162826201797      2.25824320030187
  H          -0.86656741077245      1.58284307895173      3.64104408446733
  C           3.17035571189887      0.22931861220506     -0.15352652756633
  H           4.24106554147727      0.29544343651572     -0.33267089490212
  H           2.89193519788195     -1.07983376136507     -0.42689754698227
  C          -0.99876683535035      0.45555032752373     -1.75409670536968
  O          -1.65662161989130      0.50384500240579     -2.70518030459667
  H           0.65162599262997     -1.30963507514687     -0.29365640496147
  C          -3.53991038403633      2.37348653745454      2.47852211744996
  C          -2.69149490260147      2.81064422788694      0.20090388474422
  C          -4.13316778213719      0.84167988059845      0.57274418276559
  H          -2.79531848076916      3.05047468989922      2.88991990170141
  H          -4.42282638538892      2.96406764608747      2.23483963860468
  H          -3.82404166207637      1.66101477507560      3.24334109210995
  H          -2.41022917720326      2.38820508583445     -0.76202217066559
  H          -3.56017161713285      3.45192896806365      0.05639194850837
  H          -1.87040679431787      3.43095330344336      0.55491728389558
  H          -3.72355498144989      0.26453077363071     -0.25697237062657
  H          -4.57860358324343      0.16421261285337      1.29647314905243
  H          -4.92640465254527      1.47775798939097      0.18211538779399
  C          -0.59492139287784     -1.37733328495793      3.05155964955207
  C          -2.88709854929773     -0.66912472771337      3.66629921174665
  C          -2.50470250406546     -1.96211637889793      1.56585648259994
  H          -0.26560860939950     -0.76924709641926      3.89179272575691
  H          -0.68298550901671     -2.40627120278556      3.39877041046163
  H           0.17594994706625     -1.34849753695301      2.28137001262805
  H          -3.90262494710861     -0.47155994351631      3.33448748591019
  H          -2.91081359768121     -1.57927978392076      4.26639837163319
  H          -2.55421011345577      0.14096116528138      4.31171514244596
  H          -3.51397788793509     -1.72428356995922      1.24276942579245
  H          -1.87870032464548     -2.06105121919534      0.67998592775865
  H          -2.53486203061311     -2.92524565394910      2.07518688334523
  C           1.74469408911902      3.68923628878738     -1.88042280432550
  C           1.83075825850759      4.97290018580502     -1.06347911203200
  H           3.52550581958474      2.77308353833664     -1.34454922131930
  H           2.07693450367658      3.88649657163057     -2.90932415862222
  H           0.70719514326871      3.33767835926853     -1.91241319929341
  H           2.85722572050719      5.33153042323742     -1.02308028159326
  H           1.20756864619969      5.74483145779541     -1.50709102276388
  H           1.49146247419614      4.78233837562833     -0.04884613534123
  C           2.69848623225246     -0.68008020819023     -3.47890260615287
  C           1.41121272056517     -0.82733069966433     -4.27862600261743
  H           2.58458451513444      1.35578783559516     -3.51672161256384
  H           3.56467935882991     -0.79822095567714     -4.14000748019443
  H           2.75306109998749     -1.44042279856545     -2.69770640237917
  H           1.37015344921542     -0.09416047173835     -5.08424898791481
  H           1.34082546710599     -1.82307117445892     -4.70767501538814
  H           0.55272834768644     -0.67412458792763     -3.62608833992730
  C           1.18149361186922     -2.36531485589851     -0.54720633451376
  O           2.50139559658136     -2.20791954666713     -0.78205018474245
  C           0.44669091837170     -2.95117039048915     -1.74001758135390
  C          -0.88011973482783     -2.66737946534575     -2.02187364530321
  C          -1.51655953668742     -3.26596360849594     -3.09416904827196
  C          -0.83134266454961     -4.16314784736680     -3.89516965887447
  C           0.49291815820658     -4.45671156109159     -3.61746031650364
  C           1.12630547622631     -3.85694190832994     -2.54509183689438
  C           0.95345941266512     -3.31071412859142      0.64943328592458
  H          -1.42264044861962     -1.95605497693340     -1.40808860436709
  H          -2.54819113584326     -3.02591721482989     -3.30690679632970
  H          -1.32728107720016     -4.62826909515565     -4.73482018030327
  H           1.03521159064897     -5.15450396647388     -4.23959260726246
  H           2.16160360406948     -4.06816731636335     -2.32260713501786
  H           1.49492814783467     -2.94996349292916      1.52198662896314
  H           1.36793453358869     -4.28004478699377      0.37679382437743
  H          -0.10018164695458     -3.43293061632797      0.88140641542169
