83
Coordinates from ORCA-job TSA2S_3S E -109.204050469490
  Ru          0.03005169474115      0.49095760288001     -0.85806416929717
  H          -0.11234632817164      1.98916132338373     -1.01844051776676
  N           1.28189164317833      0.85820178423647      0.78052005539387
  C           0.80393219949643      1.34247418178815      1.92941633472667
  C           2.57934419442817      0.46128003383553      0.69221210615872
  C           1.57206971335311      1.40284715892976      3.08029388583673
  C           3.39105798813090      0.47980388240445      1.84554105349085
  C           2.88582426427636      0.93999876724854      3.03415856779994
  H           1.15577175507504      1.80031456768376      3.99238354415987
  H           4.40870455051553      0.12939972898912      1.76699976628494
  H           3.49781976514201      0.95662702544528      3.92381908031699
  P          -1.60933328212798      0.80673954515502      0.74987178483947
  C          -3.08438342168334      1.94038532296100      0.35906923738081
  C          -2.20989773684191     -0.60144123073086      1.88532816383456
  P           2.07958990454643      0.78018637250473     -1.88886866358694
  N           2.85916348144612      0.26443250034098     -3.30594784469930
  N           2.59511200620081      2.38099972320178     -1.83546563836913
  C          -0.60982188652587      1.84773424032662      1.91196753976315
  H          -0.60263548619942      2.85073541792558      1.46865051269372
  H          -1.03407338483247      1.90669816376499      2.91678806122564
  C           3.06048480541958      0.01766603621388     -0.58173568897493
  H           4.13954660609776     -0.00842191483489     -0.71460739183671
  H           2.67624768998960     -1.28639732155209     -0.83239327725321
  C          -1.06236653034614      0.14564270249981     -2.29413083618149
  O          -1.75858843526823     -0.04445923394221     -3.20013272007146
  H           0.43380014013311     -1.26857896995325     -0.59330865356127
  C          -3.60943194062110      2.73469139177660      1.55650331468027
  C          -2.63530860565878      2.94552703473522     -0.70419445588244
  C          -4.19341417941498      1.08724576782065     -0.25832852465992
  H          -2.85397491566125      3.41779536086822      1.93728010589923
  H          -4.46065491414315      3.33239717994277      1.23119893087179
  H          -3.94498212388258      2.09980259871134      2.36744804438042
  H          -2.33557376784902      2.43095815138256     -1.61568063081820
  H          -3.46009694685567      3.61706902143691     -0.93982448553768
  H          -1.79754324013454      3.54883802713884     -0.36013774147574
  H          -3.77369795168037      0.43029148262999     -1.02056296293260
  H          -4.70820582396868      0.48730158690015      0.48697702165811
  H          -4.93267813960191      1.72947833229052     -0.73536323862776
  C          -0.95022624352971     -1.09517704030865      2.60115909681665
  C          -3.25358859911531     -0.27643259384068      2.94978955930451
  C          -2.72610884016235     -1.71085631135711      0.96757396281978
  H          -0.65804265799845     -0.42511664884545      3.40703423730607
  H          -1.12216847972800     -2.08063444474492      3.03175352477100
  H          -0.11503980309529     -1.18823395944705      1.90770393149394
  H          -4.22206938871042     -0.03917283569049      2.51893116501005
  H          -3.38298171327197     -1.15522845202347      3.58210378079178
  H          -2.93201338399976      0.54337131544130      3.58898813163626
  H          -3.71760481250088     -1.48699037812359      0.58383432286102
  H          -2.05081950861454     -1.83329299443231      0.11936231364621
  H          -2.77509842987501     -2.65580838971400      1.50658204374234
  C           1.92157717157918      3.43248358609482     -2.57942474102409
  C           2.03060344162998      4.75435580701677     -1.82876070131349
  H           3.60879946655030      2.45415000590194     -1.87727433171742
  H           2.32855923325167      3.55249016090319     -3.59354303029284
  H           0.86982032058413      3.13666726770350     -2.66030505458215
  H           3.07161655254670      5.05832081153258     -1.73991985421003
  H           1.48240255790746      5.53257747377072     -2.35307166046427
  H           1.61787704538008      4.64069006196140     -0.82989757728981
  C           2.63952027477155     -1.03566347305604     -3.92272776113884
  C           1.44633374587496     -1.03086493603370     -4.87100698484994
  H           2.77673180543210      0.99732758528016     -4.00856950248961
  H           3.54984490603594     -1.29682714502928     -4.47438204719486
  H           2.50222929054329     -1.76560793238793     -3.12195671708692
  H           1.62692648452380     -0.36342671438480     -5.71377566178527
  H           1.26141343850745     -2.03016667054492     -5.25704156064011
  H           0.55626483283891     -0.68240342531396     -4.34743673918187
  C           0.85465381053163     -2.39714127116322     -0.78296539313502
  O           2.14567018276197     -2.35453068136443     -1.17835331071561
  C           0.72626941778733     -3.13110876976708      0.54534304537621
  C          -0.26260017796966     -4.07068486561835      0.80930461523773
  C          -0.28777806823916     -4.74547531569858      2.01851200813667
  C           0.67046806643470     -4.49508890050414      2.98427345726001
  C           1.66641018980934     -3.56814553090396      2.72785402957965
  C           1.69517219318270     -2.89993970384981      1.51927283164431
  C          -0.03288733979414     -2.98659819125902     -1.88670070392710
  H          -1.01960129941691     -4.29567783259895      0.07502652913480
  H          -1.06284875513525     -5.47620341248426      2.20388553448965
  H           0.64670251987939     -5.02398961170605      3.92619364854392
  H           2.42602847859291     -3.36605601108515      3.46931446207957
  H           2.48641424436910     -2.19166949776743      1.32123157358808
  H           0.16005336772804     -2.45512520677287     -2.81495236376597
  H          -1.09189660805381     -2.90503500066869     -1.65288319438164
  H           0.23360770947459     -4.03244327345568     -2.02931858394636
