17
Coordinates from ORCA-job NEB E -30.712449695530
  C           0.65387130708790      0.77694493361322      0.58947443130678
  C           1.44209594075475      0.61384269770554      1.70127518695731
  C           1.13067223217173      1.71529070426362     -0.37232883867623
  H          -0.38498595928567      1.05759036698685      1.26420141783251
  Cl         -0.87756343900758      0.59961576256502      2.86325284992561
  C           0.14812669248623     -0.57439071284012     -0.07680724878679
  C          -0.98402681048779     -0.23168268484744     -1.00451200566472
  C          -2.24389015487608     -0.53059791530423     -0.75072430129752
  O           2.22827150150895      0.53948727718079      2.52225032956645
  N           1.28109621843598     -1.20379689312336     -0.70245121079775
  H          -0.21014142796501     -1.20194205011339      0.74327724862131
  H          -0.69535791902799      0.27417907327031     -1.91696358305113
  H          -2.53445683177457     -1.02060199723849      0.16336663391470
  H          -3.03361539175196     -0.28970086113170     -1.44087341464485
  N           1.43188458253532      2.47387663148907     -1.17449732988161
  H           1.48784424406752     -0.79619456964805     -1.60747149328563
  H           1.16017521512824     -2.20191976282763     -0.80046867203845
