17
Coordinates from ORCA-job NEB_reactant E -30.788596725280
  C           1.83699518303232     -0.22935194702621      0.01327862811843
  C           1.69511572022660     -1.38769093944935      0.68107371944310
  C           1.42287611237922      0.04098068488761     -1.29518092355294
  H           2.31631559574801      0.59910840486772      0.51329998807789
  Cl          2.28516949856588     -1.47428839918507      2.30633854590594
  C           2.37371522868224     -4.24598261345861     -2.12311959654832
  C           1.83680847065422     -3.03851199947351     -1.93563022967303
  C           0.70305577543032     -2.80527398298979     -0.99504769479705
  O           1.14860758521910     -2.54548343435239      0.35385449009597
  N           3.48861841520710     -4.50197811426439     -2.87732596858150
  H           1.96731086524231     -5.11174301268506     -1.61670803990204
  H           2.24959353062120     -2.17409854558116     -2.43273865647506
  H           0.09825591360270     -3.70728998852255     -0.87842415020050
  H           0.07178142914663     -1.97793781343042     -1.32984507929460
  N           1.11627078829774      0.33239698102005     -2.36409821714714
  H           3.78997908801894     -3.75513129435682     -3.48379339233437
  H           3.58043079992546     -5.42502398600009     -3.26693342313479
