17
Coordinates from ORCA-job NEB_product E -30.788037102310
  C           2.01385313192673     -1.46730997529040     -0.49408985122266
  C           2.99867586378788     -1.60671715429336      0.64236729814925
  C           2.33593775310071     -0.37829975195764     -1.38325524168742
  H           1.01925888819599     -1.29969880659382     -0.06315278890113
  Cl          4.63506837737706     -1.20534983415465      0.18584205808495
  C           1.97029455849753     -2.81625542467047     -1.29077292698605
  C           0.83822807514545     -2.75740497167175     -2.28396034918708
  C          -0.18390410839750     -3.59187042156247     -2.28297651012409
  O           2.73373827970635     -1.98282421013682      1.73596375639566
  N           3.26496189524661     -3.04977648540163     -1.89700464178063
  H           1.78944273640363     -3.61944553414928     -0.56671699688727
  H           0.93636569842556     -1.99124212426318     -3.04272579139155
  H          -0.28850498462528     -4.35896116856135     -1.53285074245293
  H          -0.95843939303132     -3.54304955098758     -3.02879274371754
  N           2.56233527514451      0.46826434799467     -2.11601314916823
  H           3.45558990296202     -2.36645964632388     -2.62318709239485
  H           3.31089805013404     -3.97539928797639     -2.30417428672847
