29
Coordinates from ORCA-job P E -48.659992433840
  C          -1.48451148468543      0.56971272146483     -2.26189651923595
  C          -0.04220984392631     -1.68558673952396     -1.74921302171140
  C          -1.42158416520076     -1.84370167920991     -2.29935594565755
  C          -2.12750627197862     -0.75451384386928     -2.55686265323232
  C          -0.89295935162999      0.55750091301591     -0.84011601650873
  C          -0.03848042527082     -0.69757301274535     -0.55984593429738
  H          -1.81143990025345     -2.83389234256276     -2.47011709152386
  H          -3.13194958396315     -0.76988347983805     -2.94675680011490
  C          -2.48079013801225      1.70546201570890     -2.40203399305482
  H           0.36894305000030     -2.64080804107938     -1.42362757067089
  H          -0.68687827880342      0.76562811178935     -2.99000197414406
  H           0.61296652006650     -1.29288348482009     -2.53271158531782
  H          -1.72465197318438      0.59010846398784     -0.13391471634040
  H          -0.47948493951122     -1.22361951397237      0.29173085396419
  H          -0.29820595415789      1.45983919904140     -0.68885564244623
  C           1.38646312898761     -0.34688916435905     -0.20967233294717
  F          -2.99295193042649      1.78246979847628     -3.64190880670963
  F          -3.52559838338155      1.59160209305350     -1.56873324666566
  F          -1.92636823115828      2.90459524910239     -2.15198205525305
  C           2.15172559487095      0.45418375581855     -1.04953291617275
  C           3.46375681616757      0.75671883746811     -0.73474019694966
  C           4.03340016228719      0.25979007046933      0.42529923366254
  C           3.28192943514199     -0.54082423864684      1.26696997286351
  C           1.96855635823647     -0.84127657329241      0.94944047283093
  H           1.72096405831003      0.84992628373940     -1.95808191164862
  H           4.04404965519052      1.38229875610659     -1.39711843170879
  H           5.05778550213381      0.49677032923273      0.67106540236740
  H           3.71758629067205     -0.93256878639038      2.17434463740031
  H           1.38787428347901     -1.46642569816531      1.61302878922274
