29
Coordinates from ORCA-job TS E -48.556819351440
  C          -1.69411895796073      0.52169320119170     -1.47041621626572
  C          -0.39961103683193     -1.91218384619059     -0.69112690839503
  C          -1.70576639896863     -1.86404046525024     -1.02903204439003
  C          -2.34439539162137     -0.68091796331872     -1.46640050502616
  C          -1.31549219403513      0.80465894827436      0.66634711150875
  C          -0.46948469355588     -0.17335689820930      1.10025664331911
  H          -2.34169302787598     -2.71312075281267     -0.82044432456977
  H          -3.42037394084268     -0.69161334303142     -1.56925211489165
  C          -2.44433753349245      1.75508663287486     -1.85710520904727
  H           0.01852621435708     -2.79362517942086     -0.23485282297867
  H          -0.63270209648892      0.59333058696445     -1.64409058788847
  H           0.31364712959882     -1.19062705401704     -1.04120430381875
  H          -2.36098432775629      0.74849126085156      0.91900190814139
  H          -0.88062012599651     -1.02342663270374      1.62504816807075
  H          -0.94133772546534      1.79139794158188      0.45353141476007
  C           0.98185117254125     -0.06101668976132      1.12373945783966
  F          -2.74629971320799      1.78515764008816     -3.17330068718845
  F          -3.61317045400656      1.88921318856743     -1.20996232101517
  F          -1.74491843267667      2.87796618389592     -1.61925194756167
  C           1.67560472435755      0.93252831390061      0.42870940751886
  C           3.05430711810742      1.00169242827241      0.48400202717468
  C           3.77301324965563      0.08605427795406      1.23493637256501
  C           3.09995659679132     -0.90475831852385      1.93147725417228
  C           1.72280836675924     -0.97987001698368      1.87185880625044
  H           1.13746578689123      1.65853014077152     -0.16226291129781
  H           3.57304179340864      1.77594515752742     -0.06240882959361
  H           4.85031738302097      0.14430501559393      1.27682387611517
  H           3.65307877307748     -1.62208402209293      2.52011315228158
  H           1.20168774221640     -1.75540973599391      2.41526613421050
