24
Coordinates from ORCA-job NEB E -49.219517926590
  C           0.32085149091036      0.59896184267025     -0.46506306388005
  C          -1.07909516297474      0.78722200750312     -0.42327671696808
  C           0.91588526225903      0.19103188009559     -1.78693015578832
  H           0.95408445872284      1.35214562263896     -0.00781539050214
  O          -1.66591045812959      1.67061094998246      0.42648808939317
  C           0.44105634743731     -0.98616588704685      0.71715322244184
  C          -0.46877097067292     -1.88093277508296      0.14632986406038
  C          -1.82691077823920     -1.50472185120160      0.07477773586423
  O          -1.85472501092597     -0.10747566838667     -0.88982112160309
  C           1.89529910162925     -1.37709465105392      0.82376368401873
  H           0.11803827462350     -0.44337911142353      1.60173495948315
  H          -0.09465749639565     -2.60102221323805     -0.56491694172261
  H          -2.28104469734270     -1.07389078892945      0.96153609434363
  H          -2.49100981433254     -2.15245088225042     -0.47994020833808
  F           2.25238093869704      0.09072390947371     -1.71141663399449
  F           0.46225659236149     -0.93551960358795     -2.32014069868166
  F           0.69010802567632      1.16069031930114     -2.70711737071134
  C          -0.92346416309233      2.74931531724767      0.95119472857426
  H          -0.38369696757585      3.28209624126620      0.16387287840022
  H          -0.22029505426458      2.41702792981419      1.72078019046704
  H          -1.65603752185134      3.41640075050423      1.40216313670593
  F           2.28103017944565     -2.19935690518586     -0.19654235229814
  H           2.04703233757728     -1.94163654150167      1.75306696261920
  H           2.56759508645735     -0.51257989160858      0.81011910811621
