23
Coordinates from ORCA-job NEB E -44.235228626590
  C           0.12845694090364      0.85512296484510     -0.97668285076993
  C          -0.46218016322619      1.96859413852657     -0.41077777184748
  C          -0.61418313832946      0.12713630588620     -2.06312658326657
  H           1.19055452312853      0.87442684746076     -1.18135680110732
  I           0.94200273223109      3.35862059552220      0.50434094964083
  C          -0.13201120227667     -0.51829738077566      0.65192900389881
  C          -0.91085470630647      0.20937483465917      1.53404811102567
  C          -2.12758809712339      0.77098098219267      1.11011801352527
  O          -1.64264894222826      2.03473797542450     -0.01142509691656
  C           1.25507096232224     -0.93659381327411      1.05159426559188
  H          -0.64081284246805     -1.19339069682998     -0.02373254474089
  H          -0.41264747185437      0.67582054772673      2.37618939465340
  H          -2.68621886555170      1.37653033127909      1.80998187077585
  H          -2.74147746964227      0.21105431548562      0.41687925664230
  F          -0.04478828455288     -1.05123558286926     -2.36353086812254
  F          -1.90052244238066     -0.13292471256237     -1.80396827969368
  F          -0.59998152606826      0.84091101582761     -3.20525961188130
  C           1.95934130658035     -1.81156373549687      0.02282447373553
  H           1.16319130198292     -1.49936214730378      1.98601426879189
  H           1.85831215572682     -0.05302695345121      1.27430952799124
  H           1.36468044158244     -2.69390572562555     -0.20059794851938
  H           2.92211619641927     -2.13569071587425      0.40929037878749
  H           2.13218859113132     -1.27731939077320     -0.90706115819452
