23
Coordinates from ORCA-job NEB_reactant E -44.266091240830
  C           1.90945797228814     -0.06684244289176      0.15631957085745
  C           1.60469627240164      0.48596249472261      1.33232284659813
  C           1.34939964861766     -1.31284272907889     -0.43781736396503
  H           2.59122080001915      0.43952365318265     -0.50611375120257
  I           2.46933840210738      2.37816993822740      1.76486091832844
  C           2.22959063209528     -3.09537185441995      3.00980513870613
  C           1.86511945031686     -1.84666733933980      3.24609094531084
  C           0.60692238346668     -1.21763017592744      2.73007161663920
  O           0.83363482564707      0.14551978366846      2.34074744959051
  C           3.47956607562759     -3.72411256295526      3.52863802808740
  H           1.61280974407707     -3.73104035379658      2.38906624541895
  H           2.47183952489945     -1.19736701159997      3.86426270917104
  H          -0.12934913222185     -1.11733145884912      3.53481158208464
  H           0.16174340870017     -1.80379802374378      1.92464191098755
  F           1.83203045779480     -2.45487991457041      0.09584095281914
  F           0.00763955665087     -1.40696671895150     -0.33845694729861
  F           1.63183090434549     -1.37328839753407     -1.74481360916593
  C           4.36386976985682     -4.19577129505534      2.37444409427270
  H           3.21271920701450     -4.58534662198747      4.14731917253173
  H           4.02666894227441     -3.01390673004105      4.15100418595381
  H           3.83037288214573     -4.91175041999480      1.75432265988299
  H           5.26483983970266     -4.66908666633480      2.75642637303898
  H           4.65123843217244     -3.35277515272914      1.75080527135253
