21
Coordinates from ORCA-job NEB E -50.160947577080
  C           0.39978494232469      0.16878822538163      1.03191718342297
  C          -0.88309239711177     -0.25185593486233      1.45719556749013
  C           0.63973841289334      1.66663442594907      0.92903055065485
  H           1.24482678981663     -0.30278121696893      1.52849532831100
  C          -1.00957578672046     -1.46176690018334      2.17580585488098
  C           0.38175038303100     -0.56097650444858     -0.72104731737870
  C          -0.77422876493038      0.00735974508027     -1.27715401613720
  C          -2.03996849941604     -0.24973485943110     -0.62378969428896
  O          -1.94052890519997      0.23861061604157      0.82313702444905
  C           1.69443828696531     -0.37981236520068     -1.45217237937700
  H           0.31281728243607     -1.59707390271324     -0.39362863361977
  H          -0.68364691525741      0.88190294533898     -1.90135845258329
  H          -2.29081335919399     -1.30773104232948     -0.52379821643643
  H          -2.87390992281528      0.31850755599632     -1.02462472974846
  F           1.94245640304978      1.93166846358972      0.68802267408548
  F          -0.06739403046712      2.28728400039326     -0.03386580557905
  H           0.38541405922175      2.15382791822422      1.88717500554155
  N          -1.13505438485930     -2.41764133936050      2.80108869171002
  Cl          1.69111291978240     -1.58331430347820     -2.78900465042106
  Cl          1.92155065946319      1.21677489986856     -2.17264107606006
  Cl          3.08432282698756     -0.75867042688723     -0.40878290891604
