21
Coordinates from ORCA-job NEB_reactant E -50.193976252760
  C           1.95115019870903     -0.15289923474074     -0.31933126843811
  C           1.39222588741756     -1.37333936427517     -0.44474760564562
  C           2.24931718347911      0.89749996062118     -1.34198476414941
  H           2.23566605950456      0.12675471088613      0.68361293068943
  C           1.25501415319531     -2.09114762143349      0.79279894662871
  C           2.81700889289680     -1.44664416427718     -4.48980622702321
  C           2.36015128262091     -2.00001954722577     -3.37816030604356
  C           1.00039113409199     -1.71727501098528     -2.81463894068564
  O           0.89455369054928     -2.09662158728526     -1.45335553232438
  C           4.14034785507084     -1.71720785453197     -5.10441491699178
  H           2.22570651300848     -0.72987109894034     -5.04240388536521
  H           2.95190495279277     -2.71298182884638     -2.82151042282167
  H           0.26628287714889     -2.36076875115982     -3.31446802714300
  H           0.70258720131977     -0.67924331196663     -2.97652296300811
  F           3.16766950549158      0.49450592701419     -2.26122993330064
  F           1.14957217220400      1.26092257678367     -2.06285002985020
  H           2.63945236663162      1.81118434533148     -0.87102579398604
  N           1.14203077255907     -2.64457520342826      1.78664700238386
  Cl          3.89288382281310     -2.43775181442850     -6.72694763498838
  Cl          5.02229214557709     -0.17911475383604     -5.31016642534946
  Cl          5.15379133291824     -2.81720637327581     -4.16429420258758
