24
Coordinates from ORCA-job NEB_product E -32.338580172520
  C           2.06360680896894     -0.99294830097446      1.24616116304139
  C           0.67469741692864     -0.58060695694010      1.65283202095907
  C           2.11728127162634     -1.11753761223667     -0.28250034616899
  H           2.77651815764568     -0.23192220995738      1.57735279376592
  H          -0.11290991216373     -1.26030012455563      1.26982734709568
  C           2.41405356358845     -2.29558436599513      2.01414142358312
  C           1.75853578259447     -3.51037936913596      1.41473455041988
  C           0.64719474519721     -4.05439766626232      1.87296215870860
  O           0.39739785762509      0.37510990071677      2.31964898536881
  O           3.82394036644884     -2.41561583441715      2.02943250351459
  H           2.05621870059699     -2.17021096580376      3.05280885617502
  H           2.28074679102358     -3.93456697556601      0.56820431107101
  H           0.12680956820964     -3.64872321594904      2.72583790355021
  H           0.20554662691427     -4.92195389957392      1.41290072112641
  C           3.53634940835552     -1.30422605820696     -0.80303819215487
  H           1.69720555525305     -0.20285201857819     -0.71003513882592
  H           1.48599651984433     -1.94989882864429     -0.59994268848276
  H           4.14624229181929     -0.43950427382444     -0.55434892288399
  H           3.52661203638993     -1.42133894494871     -1.88442483704092
  H           3.99731439956804     -2.17854121523521     -0.35488337347194
  C           4.29706644276560     -3.34584609243613      2.96911350058856
  H           3.99732062598806     -3.06627734020143      3.98693289211585
  H           5.38251592285408     -3.33222009886435      2.89392074777030
  H           3.92773905195769     -4.35685753240954      2.76086162017493
