20
Coordinates from ORCA-job NEB_reactant E -37.781813284140
  C           1.70971871069745      0.03897704047003      0.00892681410579
  C           0.94058080495797     -0.95131514173365      0.44233256490144
  C           2.33857227526510      0.06032137565519     -1.34548375971523
  H           1.91191486085742      0.88262706637348      0.64698726661141
  H           0.49950892624902     -0.93114625699608      1.43302391824606
  C          -0.43294385536979     -5.35384219343101     -0.63899254199893
  C          -0.53163646655343     -4.03861335926627     -0.72419623906829
  C          -0.03545101761390     -3.08864983760446      0.31730314213990
  O           0.63054394659632     -2.02431636517260     -0.33233175771302
  C          -0.96051914079405     -6.29614307644156     -1.67762429686793
  H           0.01504882635774     -5.85045527173978      0.20934960079694
  H          -0.98480851185363     -3.57123082936534     -1.58705947569043
  H           0.64182740832171     -3.59586983850662      1.01837567160969
  H          -0.89589472614390     -2.70082393111190      0.88624057995222
  F           3.63079782078872      0.53286310600940     -1.27043569534382
  H           1.80744360982098      0.73767879694176     -2.02660938385000
  H           2.38222509081133     -0.94395432049873     -1.77634767064575
  F          -1.80835997959627     -7.19876080646181     -1.11424986856775
  F          -1.66787909478073     -5.66165355224411     -2.63962456916630
  H          -0.16068948801805     -6.87259260487592     -2.17488429973601
