19
Coordinates from ORCA-job P E -28.893009586600
  C          -1.32567457322906      0.35384538597199     -2.37853084141151
  C          -0.03911249413202     -1.64216070981805     -1.01838577359210
  C          -1.43015522946048     -1.90354408587554     -1.50465699517167
  C          -2.05226578441754     -0.93986591217586     -2.16591098889972
  C          -0.71763243347789      0.82868098751580     -1.04397835231835
  C          -0.00967445264363     -0.29903279842452     -0.28621595632040
  H          -1.88341696086583     -2.86031037285332     -1.30253696598403
  H          -3.05555095423187     -1.04331112323909     -2.54727574730254
  C          -2.24235089990042      1.42168112077912     -2.96381587891062
  H           0.31436082414875     -2.43429885967727     -0.35781568619545
  H          -0.50374426319034      0.18943324185350     -3.08819362260910
  H           0.63884610160264     -1.59224922390735     -1.87711255700159
  H          -1.52502877271056      1.21896289256899     -0.41939119533067
  H          -0.44919863081242     -0.41964416764681      0.70550629065804
  H          -0.03673487712535      1.65561449706370     -1.24875684885121
  Br          1.87697559838118      0.16640750659850      0.08744857147830
  F          -1.53611820306304      2.56618447908817     -3.23889014236573
  H          -3.03463507184130      1.70054517108326     -2.26045728436235
  H          -2.68213892303083      1.08844197109480     -3.90972002550930
