19
Coordinates from ORCA-job R E -28.799826992480
  C          -1.38022671206045      0.03292839461534     -2.85154198300911
  C          -0.11534375389034     -2.52131983075293     -1.83359436743549
  C          -1.34876647202758     -2.09636908232180     -1.58173130470867
  C          -1.99348040733518     -0.94333555857057     -2.18567524329069
  C          -0.74187895579214      1.53922850941498      0.16878977672166
  C           0.09324207203899      0.54408531668148      0.37618515782092
  H          -1.96326599555591     -2.64268548459432     -0.87668147926742
  H          -3.06858918495752     -0.89423001671126     -2.05872210523430
  C          -2.09462705211409      1.19631696847173     -3.45138631618633
  H           0.29385171799792     -3.38354247931815     -1.33600929237363
  H          -0.30710427798715      0.04541028069776     -2.97263738693485
  H           0.52934571583758     -2.03286511140468     -2.54311926057979
  H          -1.64731757715018      1.61899897117131      0.74606054352705
  H          -0.04786622514544     -0.23794049096941      1.10462910871573
  H          -0.56797694462893      2.29693969862585     -0.57565064061118
  Br          1.70146229396479      0.34085475200903     -0.59714624848214
  F          -1.56040717847582      2.38343097490969     -2.98874510730841
  H          -3.15794614709576      1.20900846338466     -3.19094786742103
  H          -1.97423491562278      1.21771572466129     -4.54200598394228
