19
Coordinates from ORCA-job TS E -28.784769093820
  C          -0.38366761799434      0.33977691759056     -0.95129435276927
  C           0.96602418898295     -1.85886279745700      0.30101144876103
  C          -0.37262849192646     -1.85102730608933      0.10111583653354
  C          -1.03715194641535     -0.78928157135260     -0.55035610764724
  C           0.27640779231702      1.04484607901785      1.03103431069492
  C           1.11289761142573      0.14139528569140      1.59603612339634
  H          -0.99009177264267     -2.58366591091820      0.60316285853179
  H          -2.11891918870453     -0.78392124628282     -0.52646159137927
  C          -1.13447878091076      1.49190409258570     -1.54559743505612
  H           1.42659612301500     -2.61552030890986      0.91486547023929
  H           0.65776236878344      0.30591323584132     -1.23231008942335
  H           1.63462112420395     -1.31988425178194     -0.34427536462548
  H          -0.73896188995735      1.10020427721005      1.38508648011236
  H           0.83248287120743     -0.53205448899256      2.38556708774682
  H           0.66639794278202      1.91662046637422      0.53477546265640
  Br          3.00171228778848      0.34905369837312      1.43833745163272
  F          -0.35073568364007      2.61920010687452     -1.58912282963508
  H          -2.02871398241614      1.74815299025154     -0.96714295479747
  H          -1.41955295589834      1.27715073197404     -2.58443180497191
