17
Coordinates from ORCA-job NEB_product E -29.485025827640
  C           1.96363466039285      1.89762299103139      0.27115266413576
  C           0.80728117903506      2.47021636362149     -0.53682924682301
  H           1.62198797701983      0.94966208401344      0.70085170938049
  H           2.83287394468978      1.70166623366125     -0.35802982946083
  C           1.09101877031780      2.54806761815656     -2.02606198761357
  C           2.31652515324787      2.82778324382969      1.42601757087069
  C           3.29681315860482      2.23298835253855      2.36775731903002
  C           3.12780179623536      2.21143321989614      3.67786114787992
  O          -0.21566015035221      2.83363186897870     -0.03068722424347
  I           3.17461339379486      4.67734346260072      0.60375237719869
  H           1.41048100137555      3.14957077081390      1.93916048695409
  H           4.18546302143191      1.81347863186531      1.91439144695534
  H           2.25348027297617      2.63493146975061      4.14445662154754
  H           3.85561078927187      1.76875537530373      4.33498848405876
  F          -0.00864291734734      2.92738338489424     -2.73497045500789
  H           1.41063184619468      1.57094637817489     -2.40764387452146
  H           1.87598610311113      3.29401855086938     -2.20796721034106
