23
Coordinates from ORCA-job NEB_reactant E -40.775852522140
  C           1.57876668182536     -0.28730055051206      0.17768130817230
  C           1.31897905974424     -1.44027275763342      0.81337679853801
  C           1.96938821118912     -0.00744544330298     -1.23447144738032
  H           1.46328273797299      0.60927215101164      0.76467758263898
  C           0.90956343573035     -1.39884141032788      2.26704273123283
  C           4.20124459787577     -4.40834501218190     -0.42059983796913
  C           3.53607727064587     -3.26686725373151     -0.41178796056927
  C           2.07138529492983     -3.17811137269708     -0.72433352904294
  O           1.34407236693909     -2.72015215822595      0.40795605208763
  Cl          5.87522267730572     -4.51225005919501     -0.05329670550253
  H           3.75462194645144     -5.35769435356289     -0.67483084125573
  H           4.02644953722609     -2.34132384797274     -0.14933202776518
  H           1.66324624022158     -4.17179254911743     -0.92560910276506
  H           1.90299034062213     -2.55276895302428     -1.60202349425039
  F           3.20377496667240     -0.49000440297367     -1.57241205963765
  F           1.11335828095717     -0.56002052340800     -2.14603239478192
  H           1.98965708084018      1.07335327627709     -1.43619557867148
  C           2.13660758952669     -1.59585690205754      3.15803084344443
  H           0.20395223200183     -2.21143044047956      2.44174429417606
  H           0.42541287736715     -0.45173461354689      2.49963441685743
  H           2.62186646145272     -2.54074637921177      2.92632618653995
  H           1.84304074917855     -1.60404037853574      4.20441404459632
  H           2.85153936332374     -0.79112606559043      3.00344072130768
