23
Coordinates from ORCA-job NEB_product E -40.782045364220
  C           2.74079314111503     -1.52053006319494      0.45342020208742
  C           1.47021811634012     -2.02067141059487      1.16128538357944
  C           2.36510353116825     -0.32880134701484     -0.43561364618783
  H           3.43263269112268     -1.13931257139562      1.21205492384608
  C           0.99361031295935     -1.15617910069584      2.30356060944020
  C           3.42294484778092     -2.67594863363005     -0.30345105561022
  C           2.94885466106817     -2.88448527359305     -1.70335988626554
  C           2.24646649058994     -3.93920059493292     -2.07143179901022
  O           0.94427040191112     -3.05756885512142      0.86706457768652
  Cl          5.20093428235299     -2.37743868301011     -0.33008920344770
  H           3.28186249556378     -3.59029184023183      0.27945073836597
  H           3.22863893085871     -2.12148453168261     -2.41537891237917
  H           1.95916129520271     -4.70234982359406     -1.36790807531523
  H           1.91158568672881     -4.06373349057108     -3.08601013180132
  F           3.40133403396556      0.07836310958494     -1.19822136424319
  F           1.35737419514952     -0.62870431221684     -1.28685902160340
  H           2.03795874945625      0.54199911812368      0.15656960290033
  C           1.67348153160462     -1.63533180869328      3.59156980632009
  H          -0.08529972717389     -1.28011598456699      2.40344968691985
  H           1.22336674141173     -0.10470002272705      2.13601822600384
  H           1.44972615653738     -2.68469464055455      3.76467882250901
  H           1.30899599466711     -1.05830864494046      4.43712123092810
  H           2.75278543961914     -1.51601059474618      3.53137928527697
