20
Coordinates from ORCA-job NEB E -36.448400176190
  C           0.38280356326399      0.48865218102850     -1.20024415240817
  C          -0.39241628072789      0.73102878745932     -0.04234727250948
  N          -0.21456589273382     -0.20115871731769     -2.30180205775537
  H           1.01886841900324      1.30285575895274     -1.52900201039314
  O          -0.15874167433482      1.91264149346367      0.56394355782381
  C           1.52320699084611     -0.97970744494976     -0.51428013640943
  C           0.57559352580385     -1.90290264733983     -0.10599110294550
  C          -0.28982454994866     -1.53403868635029      0.96306727469265
  O          -1.10718237900449     -0.15918639658624      0.52769571551060
  H           2.14253173332246     -1.21182864741932     -1.36909251540804
  H           2.01990307915536     -0.37076663877591      0.22903028764066
  H           0.23251790566635     -2.65529871400581     -0.79804386125537
  H           0.18591514749261     -1.15540058125138      1.86383550086880
  H          -1.11576799453473     -2.20136674287094      1.17168368355092
  O           0.14274752352563      0.14650946275546     -3.41138821844307
  O          -1.02531955644415     -1.07178035962858     -2.07186318679119
  C          -0.85311923002381      2.15875852635542      1.77721319328038
  H          -0.63765774872567      3.19245678833345      2.03546852786003
  H          -0.50239403457477      1.49425452057822      2.56989824927404
  H          -1.92709854702678      2.01627805756897      1.64221852381688
