20
Coordinates from ORCA-job NEB_reactant E -36.476824771200
  C           1.83539378995047     -0.15619869974160     -0.02674020988834
  C           1.83385299153716     -0.06686346899620      1.33868036253021
  N           1.60303560149081     -1.25514385203424     -0.84685369087898
  H           1.97263817078197      0.76834390703927     -0.56519907046505
  O           1.83310557604244      1.18877972582502      1.80314721596527
  C           4.74840044463990     -3.05435668635411      2.32062001989540
  C           3.84491778740571     -2.28347952250658      1.74633049040985
  C           2.39044202766735     -2.29970139508293      2.10026282572395
  O           1.86930640087621     -0.97953877965119      2.29336701902370
  H           5.78047560611348     -3.03717690640879      2.01765357184612
  H           4.48775684754276     -3.74741875350226      3.10300988439262
  H           4.12343336292010     -1.59653228932338      0.95789254288113
  H           2.22263302873196     -2.79156333573304      3.06005357742671
  H           1.81951446685450     -2.81769884976682      1.31758906526102
  O           1.89120255526719     -1.13700187152922     -2.02547586159589
  O           1.09040339086663     -2.26696185073935     -0.37720049046987
  C           1.93489673772315      1.39050316414813      3.20495848015737
  H           1.97636869716054      2.46903931667011      3.33618317758943
  H           2.83957576870012      0.92668775167646      3.60378816279107
  H           1.06414674772754      0.98218239601074      3.72133292740428
