23
Coordinates from ORCA-job NEB_product E -43.989503814290
  C           2.49538410897426     -0.55768533826576     -1.32295445538416
  C           1.25757012257414     -1.48558537087169     -1.29802581817772
  C           2.03213545108339      0.89467099395138     -1.24987121409173
  H           3.08999668048581     -0.73655717424512     -0.42184021951554
  C           1.10653121829178     -2.29275517867885     -0.03741203938753
  C           3.33844346197212     -0.93376489479654     -2.55763017958818
  C           3.02777692496347     -0.22215752926358     -3.82716443477583
  C           2.49441021870989     -0.82872509413623     -4.87168203923678
  O           0.52591186280525     -1.57795521285550     -2.24367196686174
  Br          5.26189485069697     -0.68165597923105     -2.14266885245659
  H           3.24545852365012     -2.01298163703686     -2.70590443857186
  H           3.30292880833702      0.82180885269415     -3.86628903775168
  H           2.22170108799654     -1.87074282182501     -4.84850352568762
  H           2.28577765880259     -0.29622280830549     -5.78256758293850
  Cl          0.85840929302401      1.32543772445982     -2.50871049839875
  Cl          1.23144293743136      1.13948102992548      0.33472044034093
  Cl          3.40571954680662      2.02553192248563     -1.32828479869664
  C           2.15328828382922     -3.41098319029243      0.00420598226720
  H           0.10738331092055     -2.73003264604272     -0.02747009665551
  H           1.22519151732068     -1.64367653751064      0.83088149471344
  H           2.04475631936206     -4.06310979748112     -0.85925087499311
  H           2.01234066208367     -4.00611776540923      0.90220268906708
  H           3.16494714987848     -3.01252154726862      0.01639146678082
