16
Coordinates from ORCA-job NEB E -29.997141986050
  C          -0.45265850477554      1.29230671798959      0.03190469229945
  C          -1.43179231783171      0.31306396955619      0.25212064069016
  N          -0.10944850571026      1.63951643205027     -1.24834850396925
  H          -0.37837255334816      2.09678940764335      0.75521824542203
  F          -1.93101216523562      0.31473334359725      1.54261991229053
  C           1.03294650039018     -0.02426710021712      0.74047774217905
  C           0.88909956162845     -1.12426895564200     -0.08946309762268
  C          -0.25506494500816     -1.91661442859067      0.04211626360659
  O          -1.55249372092207     -0.74370698070015     -0.39535666267450
  Br          2.58603522089819      1.07044206582099      0.54368824799242
  H           0.69737961568466     -0.04946138761828      1.76779663643172
  H           1.43847863209643     -1.14547128619312     -1.02072125363251
  H          -0.63470057339134     -2.12426262794502      1.03324595219577
  H          -0.43143308289487     -2.69767456685228     -0.68031077131008
  H           0.71993936444304      2.20551418412745     -1.34930767949568
  H          -0.18690252602325      0.89336121297354     -1.92568036440301
