16
Coordinates from ORCA-job NEB_reactant E -30.017011659520
  C           1.54868841849423      0.01593615283389     -0.28148535026067
  C           2.07771716561337     -0.66783364767902      0.73107190406182
  N           0.74750049088702     -0.54604287796124     -1.26088293628834
  H           1.78654919424455      1.06187465630200     -0.38953019637141
  F           2.95725146567974     -0.03963812615752      1.56925490718342
  C           4.11325072178388     -3.68969570154935      2.82513756975532
  C           3.96456046141467     -2.78691406818311      1.87283134089201
  C           2.89033774438524     -2.89274276213542      0.83244098417688
  O           1.82323129058441     -1.95727088339663      1.04413899443174
  Br          5.45435237218566     -3.57050436162838      4.14758307439473
  H           3.50327249050348     -4.57460211458466      2.91895335496145
  H           4.59342054349525     -1.90895762383546      1.83664345060700
  H           2.40686305045721     -3.87153181210463      0.87498618671841
  H           3.31908536516594     -2.73531377514660     -0.16599703941786
  H           0.03042827442953      0.06522427329696     -1.62078489983869
  H           0.39509095067583     -1.46068732807081     -1.01456134500579
