16
Coordinates from ORCA-job NEB_product E -30.033197786360
  C           2.77157134588414     -0.67362290637023      0.85459513475002
  C           1.29207859726067     -0.81307317036378      1.14354054265615
  N           3.04971797011926     -0.42743228665830     -0.53736167898020
  H           3.16469742997631      0.15648845128382      1.45590248110493
  F           1.04974761100715     -0.88605310870521      2.48338155033983
  C           3.45170674607323     -1.97566700664415      1.33569293909837
  C           2.99188585587167     -3.17918279656522      0.58812920913502
  C           2.34736077252050     -4.17977819274001      1.15938248596586
  O           0.39678573799464     -0.87587777639387      0.37896973314960
  Br          5.39216666315108     -1.76263627393112      1.09070690574540
  H           3.30187251347120     -2.09540030961769      2.41115152836022
  H           3.23294402512194     -3.19233905807567     -0.46534929033140
  H           2.11593142347195     -4.18304506138699      2.21237467022356
  H           2.02062034037443     -5.03484768554162      0.59440921274890
  H           2.85632539582024      0.53210468492195     -0.79409411348839
  H           2.49258757188158     -1.03123750321191     -1.13213131047787
