22
Coordinates from ORCA-job NEB_reactant E -42.136253660170
  C           0.99163500859739      0.33954194148802     -0.40239820874195
  C           1.01055192097464     -0.33953282382466     -1.55385219121021
  O           0.53795835835380      1.61561813998930     -0.24611765878428
  H           1.34252074901926     -0.15145384689371      0.49774543679598
  C           1.47041902702710     -1.77625418361097     -1.55998038290532
  C           1.74007875220386      3.47960126158745     -2.43651466399969
  C           1.71706142259677      2.21698760633730     -2.85815542634680
  C           0.46153296162940      1.42999288903651     -3.05754942481835
  O           0.64459087893007      0.05217207280988     -2.80843367471158
  C           2.93846266770330      4.19121915057165     -2.24256937948352
  H           0.83083353062899      4.01967606600182     -2.20646367983544
  H           2.63640542641511      1.68842915262700     -3.07600786160609
  H           0.16751546319829      1.46883571406365     -4.11363319178331
  H          -0.35294635802666      1.83342018908470     -2.44518071442023
  C           1.02451729956587      2.28766563862850      0.89537474885145
  H           0.45780738359436      3.21346216354833      0.97073359011331
  H           2.08919132034913      2.52082579674605      0.79149599727619
  H           0.87206136869604      1.69178529266541      1.80043003893364
  F           0.50419844841898     -2.60592862463571     -2.01790768387558
  F           2.52971131221861     -1.93870007944134     -2.39047737356997
  H           1.76997395428674     -2.12899298459240     -0.56164298800766
  N           3.90781910361895      4.77792946781321     -2.06519530787058
