17
Coordinates from ORCA-job NEB_product E -42.704822753630
  C           3.14637949470975     -1.38780243059878      0.32852702589941
  C           1.64207661644319     -1.27613567681949      0.40077001668498
  Cl          3.78946283602734      0.13174638737482     -0.35186333071861
  H           3.58572648419137     -1.51220694087597      1.32184573329592
  C           1.04520807006204     -2.02510440250388      1.63534395042781
  C           3.51541355032715     -2.58776324502413     -0.56630355102693
  C           2.98801679141616     -2.45999563342187     -1.95540243335656
  C           2.23489330232072     -3.38170719373396     -2.52631847075262
  O           0.93061247434949     -0.72082007872616     -0.37570966069017
  Cl          5.30901152720824     -2.70151251818399     -0.61952316680357
  H           3.16792814668955     -3.51069050358487     -0.09361554794741
  H           3.27580267518034     -1.56138089924318     -2.48015509681252
  H           1.94853683665598     -4.28463748016586     -2.01206618484575
  H           1.87461509700241     -3.26657692016272     -3.53297788264185
  F          -0.27667452081752     -1.94507130638370      1.68428077726367
  F           1.37467828677758     -3.32790292055714      1.60295714973336
  F           1.53421233145622     -1.53163823738913      2.77991067229083
