17
Coordinates from ORCA-job NEB_reactant E -42.710656770320
  C           2.05642484446964     -0.32666250099482      0.16054962308717
  C           1.56815307078923     -1.54611961990778      0.39367707294508
  Cl          2.78019349394857      0.25265003668895     -1.28631002771443
  H           2.01796750691933      0.42057046082691      0.93646762389893
  C           0.95217196996771     -1.82755840539605      1.75849930855898
  C           4.20165188822336     -4.15978881837595     -1.61690556848322
  C           3.59653788560550     -2.99973586309303     -1.42179632053084
  C           2.11677284961865     -2.82411146213279     -1.59057800709533
  O           1.45385374866811     -2.67144577641245     -0.33670618481286
  Cl          5.88945126596594     -4.37021455159615     -1.42083739855412
  H           3.68333966903585     -5.05461545220858     -1.92760261995850
  H           4.15520865260800     -2.13291862924393     -1.10215370495037
  H           1.66869436558983     -3.72814379161980     -2.00816743787653
  H           1.90003248374603     -1.97400646131172     -2.24319670951518
  F          -0.32646481002361     -2.20265714767698      1.65360601238658
  F           1.59693711678644     -2.81407785114771      2.39037859200994
  F           0.97527399808141     -0.76876416639814      2.57657574660471
