20
Coordinates from ORCA-job NEB E -32.736478417670
  C           0.42013712930482     -1.17960529962039     -0.30234215110730
  C           1.22989999930078     -0.48767376632644      0.48512392086122
  C          -0.34201794423223     -0.65380348628014     -1.48299910917649
  H           0.30008216838724     -2.23180726328136     -0.09483189800410
  Br          2.18164372665092     -1.42288058824303      1.87471907361228
  C          -0.27981396689133      1.16698645893503      2.68197947073313
  C          -0.47950276180687      1.71774573601268      1.49620591450214
  C           0.56631532473309      1.80687469806930      0.42170635470129
  O           1.57937279017245      0.81570455217772      0.49410196983238
  Cl         -1.50922008609383      1.08540713071822      3.87544152545245
  H           0.65586538092006      0.73318287267946      2.99912183743207
  H          -1.43560189383775      2.15198359907974      1.24435748868109
  H           1.11706795703117      2.75001743562212      0.51348894810739
  H           0.07851509290552      1.79140614919668     -0.55887914978927
  C          -0.70159517751899     -1.78189383211086     -2.44394403003899
  H           0.25654675390665      0.09211620132658     -2.01180889609909
  H          -1.26288305547754     -0.16921003329480     -1.13900731869693
  H           0.19773638019139     -2.27424063720808     -2.80604414864130
  H          -1.24701305345248     -1.38880018346274     -3.29852021578614
  H          -1.32553476419308     -2.52150974398972     -1.94786958657583
