20
Coordinates from ORCA-job NEB_reactant E -32.743129112790
  C           2.50306116215244      0.34920442344493      0.36524095617042
  C           3.10606187859951      1.03182474821856      1.32816267373975
  C           1.29334931039543     -0.50555866293816      0.58309587335516
  H           2.91225224696302      0.37221095623539     -0.63226176695255
  Br          4.66804200317001      2.07898000550046      0.87781715482510
  C           0.97367364412993      3.15102018251770      2.13951615997360
  C           1.96241259628667      3.27224964070830      3.00808107131444
  C           2.87185363197701      2.15008109166344      3.41439891570945
  O           2.76713721835679      0.98180781851928      2.62747076387125
  Cl         -0.03568563996950      4.46872994934915      1.69773551320019
  H           0.71790155712184      2.22809924524397      1.64320000357784
  H           2.17523921461197      4.21853253627039      3.48241855045520
  H           2.62812280712684      1.82048580657191      4.43004332291014
  H           3.90942004065987      2.51453766546289      3.41552848408139
  C           1.61035984231972     -1.97451531610633      0.30504424596035
  H           0.50152620702430     -0.17692952500271     -0.09650114751937
  H           0.94393424482513     -0.39411316260883      1.61041101264535
  H           1.95979089091642     -2.10261410813958     -0.71689848665225
  H           0.72140429284434     -2.58412187977249      0.44623977406467
  H           2.38454285048825     -2.32761141513828      0.98185692526986
