24
Coordinates from ORCA-job NEB_product E -45.043740972910
  C           2.17244438948484     -1.73534773019487      1.58902400095801
  C           0.87718752430314     -1.60719527973593      2.39899346724040
  C           1.90283335573540     -1.21466789009767      0.17090180824233
  H           2.98104702732970     -1.12677470879069      1.99838088807740
  O           0.81576037827355     -0.73757515789159      3.40735714845507
  C           2.61768374809388     -3.21563726030895      1.57058391625986
  C           3.88274973805530     -3.37289540945041      0.77509967916134
  C           3.96852847459435     -4.08484287111341     -0.33113621783559
  O          -0.09021679542307     -2.26687064840109      2.13652668887505
  C           2.82366217595143     -3.70650833357873      3.00669465592092
  H           1.81533811067631     -3.81407498362940      1.12950374078577
  H           4.74434929071498     -2.85578978894981      1.17585679814357
  H           3.11336500481210     -4.59331881702314     -0.74451613775953
  H           4.89228022406615     -4.17467637151624     -0.87544825540191
  F           3.06640426463116     -0.85021478083981     -0.42580740542396
  F           1.34546991075597     -2.14510439328059     -0.62482072133819
  H           1.24390101381503     -0.33064153308913      0.16269723514066
  C           1.90832910082182      0.05829519053585      3.83687341185591
  H           2.22892202297201      0.75509932590942      3.05873945433087
  H           2.74850888745189     -0.55702659654933      4.16495045215850
  H           1.52755127720692      0.62335651196355      4.68611016667503
  F           3.66795349935008     -2.86161744634773      3.69292167083743
  H           3.28923839512898     -4.69570065972126      3.01616308970855
  H           1.88150898119807     -3.72797036789901      3.56285046493254
