24
Coordinates from ORCA-job NEB_reactant E -45.022221062650
  C           1.51448235445540     -0.16933826782113     -0.04675294285789
  C           1.82029960085143     -0.35063566366209      1.25435463578933
  C           1.70256708371352     -1.04810305171020     -1.22316502660058
  H           1.04766038529212      0.77710599997488     -0.25931965151342
  O           1.49307026916616      0.67354001742633      2.07123124175951
  C           3.16009880809527     -4.72580674784261      2.42722682121962
  C           3.41269164451360     -3.43191998655059      2.33374253097203
  C           2.84478845743288     -2.54381015141800      1.27322334998277
  O           2.39229407792551     -1.35805316940150      1.91842088893926
  C           3.74591988361262     -5.63024639432079      3.46281307149259
  H           2.50587142508559     -5.22611711613484      1.72695282265145
  H           4.06575525484650     -2.94566844542976      3.04399569476516
  H           2.01973315787387     -3.04171270377382      0.75758591270916
  H           3.63059272668558     -2.29258976757220      0.55036899305614
  F           3.00815407652824     -1.39184183974029     -1.45865800108150
  F           1.04869391170807     -2.25020019777001     -1.12763711221052
  H           1.33574996954683     -0.56582732631174     -2.13977364541434
  C           1.79797254655472      0.55006869226568      3.44980586296210
  H           1.44742666662989      1.47488364823884      3.90261268661107
  H           2.87292714379557      0.44063723837915      3.60901925195679
  H           1.28192271352427     -0.30352279717007      3.89465410570190
  F           4.56359183475823     -4.95953614491093      4.33526487053431
  H           4.35537161981039     -6.41486082834258      2.99645289109908
  H           2.95626438759377     -6.09784499640173      4.06458074747598
