23
Coordinates from ORCA-job NEB E -38.970609990800
  C           0.44936819887560      0.75304341838080     -0.07589019559586
  C          -0.80695005323950      0.98711970579567      0.64122720105928
  C           0.40457253851645      1.28859057966643     -1.50173145800953
  H           1.31113327051369      1.16350421219986      0.45380526911251
  C          -0.82733827916401      1.41859646617974      2.01721458515103
  C           0.64237919585012     -0.88197015647155     -0.09229275385005
  C          -0.57315859395170     -1.43823761614018     -0.64481017277277
  C          -1.79094090664025     -1.17050699237036      0.02240036489968
  O          -1.88690960340379      0.44690327199361      0.17536163752028
  C           1.91944978083139     -1.26683866847084     -0.82018296925180
  H           0.74642126337089     -1.11426937073376      0.97222135239066
  H          -0.58634832152446     -1.73195621035119     -1.68361502362374
  H          -1.82936416668102     -1.42834288020323      1.08009795934834
  H          -2.70638987303263     -1.42953729701587     -0.49680212136812
  H          -0.47200340649535      0.91434155335217     -2.02408935567074
  H           1.29881495438082      1.01222750109847     -2.05057713401693
  H           0.35031435446816      2.37533163195281     -1.47032741258672
  Br          0.42810718824396      2.76783804227133      2.50156320319806
  Br         -2.57818751548714      1.83391197195197      2.65195647021060
  Br         -0.21323673678469     -0.37278097577103      3.32557433392647
  H           2.74950126758878     -0.64207032058936     -0.50081738293374
  H           1.80737551641551     -1.18513889141766     -1.89776958187803
  H           2.16338992734918     -2.29975897530783     -0.58251681525886
