23
Coordinates from ORCA-job NEB_product E -39.001196339780
  C           2.78346615377456     -1.54734757480821      0.24324680310045
  C           1.52024089474495     -1.12535736730861      0.93214607969980
  C           2.87500244919877     -0.80190403840685     -1.08930284040592
  H           3.66031479394052     -1.30718545819759      0.85334264663346
  C           1.67422978616188     -0.62283325663171      2.36942905443359
  C           2.72148685929090     -3.09851212405400      0.09235108055557
  C           1.57647485764607     -3.52090386647645     -0.77632934489850
  C           0.47996922972665     -4.09708857573977     -0.32105232077289
  O           0.42647253997864     -1.13992926991460      0.44459879089056
  C           4.04497630975879     -3.63862186440618     -0.44741878056757
  H           2.57133203865941     -3.51627599477386      1.09475824822049
  H           1.69563096659811     -3.33193742725492     -1.83388968951918
  H           0.33666980845637     -4.30367451131058      0.72757274937061
  H          -0.32389636971327     -4.38707851663542     -0.97470014126879
  H           1.96289492082515     -0.94138433129869     -1.66309282038047
  H           3.72336545605185     -1.15755452050629     -1.66536662241483
  H           3.00952106501614      0.26312891270965     -0.90796958356833
  Br          2.65350169893025      1.06600344908356      2.25783545305656
  Br         -0.06464109203585     -0.31123894920409      3.15588353119662
  Br          2.67532564607407     -1.85843567084174      3.48035613014526
  H           4.87691102148219     -3.30360619861722      0.16773603077580
  H           4.21342163346991     -3.32007150037661     -1.47243857506080
  H           4.02102933196395     -4.72539134502982     -0.43069587922150
