23
Coordinates from ORCA-job NEB_reactant E -38.991933336610
  C           1.90289523645870      0.05366649609713     -0.13606846959197
  C           1.68052156271148     -0.93599365481135      0.72626158183842
  C           1.19702108233534      0.22734357070100     -1.43441627396359
  H           2.64380481856094      0.80211789128852      0.11077294914604
  C           2.40883534493683     -0.98391948533111      2.04609111680176
  C           2.74010561893163     -4.55943859344250      0.62063005387166
  C           2.48401948101346     -3.52575911502937     -0.16644835826543
  C           1.10802401273382     -2.97261595023145     -0.38398874354418
  O           0.77803753403507     -1.94598956612484      0.56783611305695
  C           4.10124953936859     -5.08418961294263      0.91160239245128
  H           1.92268699125717     -5.07565186808815      1.10850561738719
  H           3.29255022503776     -2.99239017910215     -0.65076318626747
  H           0.34366500571136     -3.73228905736740     -0.20939527285696
  H           1.00898355564171     -2.57680896774848     -1.40099923225269
  H           0.28234818026540     -0.35930648018068     -1.46454462962282
  H           1.84394252622179     -0.07264351171253     -2.26012330642788
  H           0.94971649314730      1.27778264584786     -1.57430997433379
  Br          2.25670678546173      0.70596689984643      3.01974819618781
  Br          1.71677507022586     -2.38503908598880      3.17156871930283
  Br          4.33245605707814     -1.31591412212989      1.77684318537300
  H           4.28947899296338     -5.04285515569538      1.98392353980134
  H           4.86565078441449     -4.50707048287749      0.39762455937053
  H           4.17312510148807     -6.12730261497671      0.60674942253798
