20
Coordinates from ORCA-job NEB E -49.222681848410
  C           0.78415604514040      0.10083791854614      0.94972020695929
  C          -0.49121137429821      0.61633066227471      1.24486100409720
  Br          2.17977968766039      1.40264332882711      0.81364769468155
  H           1.13651488417151     -0.77103979599257      1.48867602259822
  C          -1.50412232960797     -0.23187626697619      1.97759896327735
  C           0.47083276229410     -0.50678492875789     -0.83483418590656
  C           0.04975177874069      0.66329881516900     -1.47286290585204
  C          -1.14862541798314      1.28697686598250     -1.00436220490292
  O          -0.93638945469605      1.61490812350084      0.54397031080781
  C           1.72731356425799     -1.19518736716066     -1.32746002359569
  H          -0.28164149267117     -1.24706326394877     -0.57630158719297
  H           0.79372783554062      1.27385995306676     -1.96554522194170
  H          -2.02969559848725      0.65022599720195     -0.96305917801399
  H          -1.36296962459825      2.26456003061576     -1.42084515137759
  Cl         -2.32334037204451     -1.41568382244862      0.87246608452191
  Cl         -0.75425070684272     -1.16244781396308      3.28323443478582
  Cl         -2.76293443816793      0.81827133684547      2.64983054863251
  F           2.69882680982557     -0.33217343240766     -1.68110570100238
  F           2.24720014268075     -2.00236843140479     -0.37207643213708
  H           1.50707729908519     -1.82728790897001     -2.20555267843875
