20
Coordinates from ORCA-job NEB_product E -49.264642485480
  C           2.11614359661350     -1.71695848287521     -1.83903896880551
  C           0.90868110788663     -2.56318720163916     -1.52689212683707
  Br          1.59729382725354      0.02325724869717     -1.10911775567352
  H           3.00603306620663     -2.02848848179330     -1.29088868044320
  C           0.97143422753826     -3.33573377908327     -0.20315713074662
  C           2.38018121993639     -1.58502583788132     -3.33928581105676
  C           3.50965282805840     -0.62566901667739     -3.59874273906729
  C           3.36865844356693      0.49684656060995     -4.27541242726866
  O          -0.02887372902453     -2.67815055261178     -2.26101110265438
  C           2.72823238983865     -2.97080333226078     -3.90287725194354
  H           1.46836424351472     -1.24722207923744     -3.84311657555349
  H           4.46578393696862     -0.92355519333027     -3.19078919118253
  H           2.42030319013452      0.79924650132108     -4.68757580342391
  H           4.19794508504981      1.16124910870599     -4.44044157535607
  Cl          1.96000505616575     -4.76392115134777     -0.67268471794100
  Cl          1.77493024787899     -2.47972494571099      1.11364531838845
  Cl         -0.63530356262834     -3.85665102391548      0.30003665890722
  F           3.04595644873717     -2.87889470682423     -5.21015021154055
  F           3.81700450406990     -3.48117312261775     -3.27647675305711
  H           1.91027387223445     -3.70054051152805     -3.80352315474446
