26
Coordinates from ORCA-job NEB E -50.566937670250
  C           0.18344489717380      0.40314421681304      0.62401393157254
  C          -1.11064220522710      0.11149649566428      1.08801899538186
  C           0.45747743188575      1.82010051877022      0.14115125944079
  H           0.98795865108342      0.04642994223360      1.26434519228946
  C          -1.32512930611176     -0.81208962300758      2.23483941439810
  C           0.28063075518333     -0.64371182270337     -1.00134606869474
  C          -1.00293597898637     -1.11695010146453     -1.28159442536555
  C          -2.05123119174278     -0.12861361513354     -1.18518882014959
  O          -2.15890572128177      0.23740603946120      0.30737175029532
  C           1.39650859305972     -1.66092920313486     -0.89298643271330
  H           0.59791858432472      0.20968752779645     -1.59079777170074
  H          -1.25610100130490     -2.14286628105731     -1.05315249565983
  H          -3.05525287063192     -0.47569760674454     -1.41089826947746
  H          -1.83569193315207      0.81529124711741     -1.68751054773692
  C           1.90714855244956      2.05217405604748     -0.26531243443729
  H           0.23824073859677      2.47828411457684      0.98782741203850
  H          -0.22239831259196      2.10065316300427     -0.66537329852040
  H           2.57603365511338      1.75506374476851      0.53837035277786
  H           2.06281855647989      3.10830881120284     -0.47018822985280
  H           2.18614805167799      1.49343235112729     -1.15472708587300
  Br         -3.18480526674551     -0.82572438438214      2.74849363045269
  Br         -0.85124882895715     -2.74999916625750      1.74910300963784
  Br         -0.23299143989799     -0.35006537210502      3.76076197402890
  F           1.81922901742603     -1.98608726279042     -2.14238363425464
  F           2.47925754922027     -1.14666437320250     -0.26205367322127
  H           1.11451902295667     -2.59207341660016     -0.38078373465635
