26
Coordinates from ORCA-job NEB_reactant E -50.601727080350
  C           2.12857993440830     -0.46439058795758      0.03564229987078
  C           1.46217668605822     -1.61230169582936     -0.06745244075004
  C           2.03596584024103      0.68256165655726     -0.91270542365279
  H           2.79881243955799     -0.32573182305733      0.87352870462226
  C           1.59656526487551     -2.67657820296433      0.99285002920346
  C           2.95852111398251     -3.91278274097209     -2.43554943253044
  C           1.66550043279944     -3.64373548791772     -2.36537791148385
  C           1.11673092448034     -2.24881210505504     -2.33864280632429
  O           0.57159553508931     -1.91963168233952     -1.05768926273388
  C           3.52345755203288     -5.30119245580438     -2.43216959337193
  H           3.71249071588482     -3.14258403752235     -2.52044151529496
  H           0.94098025025639     -4.44113250656061     -2.27558674076418
  H           0.26720809493738     -2.16598259848205     -3.02088300055282
  H           1.89130119268397     -1.52861228329327     -2.62017924086828
  C           3.38133255614562      0.95192205888030     -1.58878541229658
  H           1.75048516638250      1.56716330910021     -0.33700863437861
  H           1.25958173109828      0.50138063729770     -1.65682720780032
  H           4.14653570550964      1.15691337978248     -0.84400326619610
  H           3.30095352898630      1.81182969393286     -2.24818466551220
  H           3.70069623570619      0.09469760346124     -2.17830990851246
  Br          1.36809033004140     -1.94843469385499      2.79055562716751
  Br          0.30149236743654     -4.08465090375693      0.74756884742516
  Br          3.40374644272644     -3.48326616472814      0.92921573475180
  F           2.56495012174689     -6.24587744306768     -2.55368490307760
  F           4.36444303612400     -5.46944052396431     -3.48648890936871
  H           4.10070680080815     -5.51783040188435     -1.51589096757092
