20
Coordinates from ORCA-job NEB E -40.019159308880
  C           0.74466612154674     -0.23359768511049     -0.93138480124862
  C          -0.57253112183683     -0.60693164492336     -1.17763195023952
  H           1.43994919668993     -1.01559738254398     -0.66698866276506
  H           1.17217661877705      0.54404550244273     -1.55219623888604
  C          -1.46277119467683      0.22333257445286     -2.04159696876508
  C           0.62045268928060      0.49497986453174      0.86917471437347
  C          -0.02205185141877     -0.54111520470962      1.53365593477723
  C          -1.32971771929017     -0.94382699750417      1.07987671743065
  O          -1.17151772747967     -1.46164454230574     -0.37633905527603
  C           2.03906868118817      0.84505380260000      1.24554681545326
  H           0.04400768740294      1.37594295749865      0.60593920788163
  H           0.58337378368009     -1.27540704045948      2.04571733228705
  H          -2.05266705167341     -0.13164988515868      0.99218663674248
  H          -1.75690326165779     -1.79950157609704      1.59190556598581
  Br         -0.71721451762012      0.44737256803379     -3.82628809024764
  Br         -3.21654212997791     -0.57451877261064     -2.17050549337294
  Br         -1.72505789674206      2.10291486774354     -1.30928801104325
  F           2.79752781936244     -0.28350301726849      1.42157865059971
  H           2.05611085700589      1.39165233383709      2.19590997159237
  H           2.52964101743969      1.44199927755126      0.47072772472052
