20
Coordinates from ORCA-job NEB_product E -40.054570873880
  C           2.33382015407761      1.84748886131262      1.34671838035479
  C           1.30127741927904      2.87809318323235      1.00389513449041
  H           1.89813065179305      0.87397034361357      1.09582842989717
  H           3.23960691201855      1.96957269269111      0.74907162076997
  C           1.43942160605051      3.50047722200916     -0.39128366151232
  C           2.67164310324442      1.85504297569977      2.84648019625946
  C           3.51056879334336      0.65719816679613      3.18867270028873
  C           3.17031884555998     -0.24853790646972      4.08431751280255
  O           0.41365626112866      3.24402131745338      1.71635987781526
  C           3.42580218900640      3.14258470145450      3.19794964510211
  H           1.74288019123109      1.83224209793966      3.42451096090106
  H           4.44851275019968      0.58472114398067      2.65398009862721
  H           2.24584946335131     -0.18440030954845      4.63375263743436
  H           3.80512436228226     -1.08675585540849      4.31259356982784
  Br          1.67954389872811      2.14266672461451     -1.76107219649399
  Br         -0.11035117030766      4.58080404824512     -0.80162807392701
  Br          3.03263528730510      4.64195429778392     -0.33004369341027
  F           3.68485670071400      3.18158956206317      4.54054991411724
  H           2.83077595354840      4.03319590402512      2.96761146115248
  H           4.39332662744616      3.19487082851190      2.68523548550298
