26
Coordinates from ORCA-job NEB E -56.776067509690
  C           0.36680747417290     -0.57372332043508     -0.05140346759125
  C          -0.96773739384035     -0.91323731651180      0.24100034038969
  C           1.25189060264735     -0.15814564859219      1.10246348131313
  H           0.87144980205668     -1.23475493834382     -0.75264677649110
  C          -1.70226438954496     -1.84315645100880     -0.71124895641289
  C           0.02403906433474      1.02475745913178     -1.03348748530250
  C          -0.75623522028033      1.79417296195024     -0.16453105981008
  C          -2.02669027140976      1.26392096360370      0.23037914554966
  O          -1.69893503468687     -0.10348829352011      0.96013797011571
  C           1.35096585118941      1.60127593097900     -1.46854335406143
  H          -0.46329330382961      0.56850151221821     -1.89075773311523
  H          -0.26331437453398      2.49996459974052      0.48771281579178
  H          -2.68440850514281      0.95389904125521     -0.57913606448504
  H          -2.55568396787078      1.82387417969421      0.99298893639073
  C           1.63767777770487     -1.40413482030425      1.89813134485461
  H           0.71577703593139      0.53583918471711      1.75012179451104
  H           2.15990725955887      0.32149278953263      0.74140144580063
  H           0.75100603176340     -1.88008238734721      2.30911320362274
  H           2.29825614017857     -1.12797725570497      2.71544320655875
  H           2.15363078150578     -2.12135150284967      1.26446731338336
  F          -2.85616912571028     -2.28108771933381     -0.20854957902692
  F          -2.01033047898533     -1.24332039986472     -1.89310983277115
  F          -0.96586972630802     -2.91553588171476     -1.03266705509775
  F           2.23419279325344      0.66463429570155     -1.84137281248352
  F           1.18291182835182      2.40241092904018     -2.53393108930091
  F           1.95241934949387      2.34525208796683     -0.53197573233204
