17
Coordinates from ORCA-job NEB E -37.909373276480
  C           0.97878989674606      0.53540494919633     -0.34836760661355
  C          -0.03809198667930      1.44273207696593     -0.08717275852574
  C           0.94691691674847     -0.23515633344031     -1.64586262431230
  H           1.99908291743603      0.81957412902161     -0.11226951636282
  I           0.42737503488733      2.99258652692001      1.34253372185623
  C           0.46160634748045     -0.87798621195164      0.97795507343036
  C          -0.87096467196086     -1.06959444272537      0.67162665227083
  C          -1.76936974375823      0.03820953755729      0.82459383475476
  O          -1.27197559032067      1.14236493100798     -0.21463682252339
  H           1.16316256695042     -1.67441740430775      0.77707119020750
  H           0.72042842349354     -0.26997503796690      1.83524422993017
  H          -1.15132297959193     -1.85255923235847     -0.01685610493299
  H          -1.70344782348932      0.58072001918275      1.76767731940948
  H          -2.79393954819107     -0.12485100943186      0.51188180405596
  F           1.72723990663530     -1.32701367546435     -1.60013234923943
  F          -0.25951240501639     -0.64349009136394     -2.03826689634094
  F           1.43402273863018      0.52345126915869     -2.64501914706415
