17
Coordinates from ORCA-job NEB_reactant E -37.932086752820
  C           1.69728917955616      0.04630297404357     -0.07696909594017
  C           1.06056451814413     -0.17134772094914      1.07816584157584
  C           2.11553896782932     -1.09942882925764     -0.93671720638635
  H           1.94374997640220      1.02835860941950     -0.43372053173028
  I           0.49163972107776      1.52414147722696      2.22619996661970
  C          -0.08060709140837     -3.77721746451399      3.91270582830230
  C          -0.17693604505041     -3.11896267350754      2.77447762587434
  C          -0.01008799952044     -1.63582195705080      2.65234067787334
  O           0.80762315739194     -1.38241884533401      1.51793462010047
  H          -0.22667261179861     -4.84162423489611      3.96104687189623
  H           0.13574545945764     -3.27948616256253      4.84375612176888
  H          -0.38701881994772     -3.62188071378480      1.84193370648773
  H           0.45658975374811     -1.21999836100493      3.55409680640518
  H          -0.99265411577176     -1.16211971942972      2.50845891420336
  F           3.04552548870018     -1.88403186036550     -0.35972978940509
  F           1.09607826121670     -1.91763726345030     -1.25888884771002
  F           2.64233219997317     -0.67602725458303     -2.09269150993547
