23
Coordinates from ORCA-job NEB E -51.646302766020
  C           0.33050463569089     -0.50612812483816      0.64633819414059
  C          -1.12307931493064     -0.37246044895817      0.82798471473550
  C           1.11996971530794      0.34222425772203      1.63974687075464
  H           0.65710074205696     -1.54700867468988      0.69846888592674
  C          -2.00354912091247     -1.51171837666844      0.79833172636908
  C           0.60256815901958      0.01793260812401     -0.87604654950987
  C           0.02910834671207      1.34543577834315     -1.01937359665503
  C          -1.35812841706606      1.47273045150402     -0.75043501531154
  O          -1.66554260814606      0.79194132424320      0.65208137763417
  C           2.08465209255756     -0.03125506300933     -1.22227560117068
  H           0.10548881102459     -0.73342742291744     -1.50323583381142
  H           0.67696218741882      2.20602683885111     -0.97603757132366
  H          -2.01489873839014      0.85847016910242     -1.37027833018412
  H          -1.73465200053426      2.48453288656448     -0.64561346102422
  H           0.90281223849543      1.39901325554171      1.50985332174480
  H           2.18741332697986      0.17862845010634      1.52545695688237
  H           0.84612595668046      0.05089208293810      2.65159509694627
  Br         -1.39841360218188     -3.10147598767232      1.64502660038747
  Br         -3.80037774514056     -1.09570822016082      1.26872613087163
  Br         -2.16407490809208     -2.09860337248239     -1.43288337590125
  F           2.66862293292316     -1.16533634476537     -0.81675068074617
  F           2.25633148399353      0.03788428493403     -2.54988706158149
  F           2.79505582653331      0.97740964818770     -0.70079279917381
