20
Coordinates from ORCA-job NEB E -51.958195954740
  C           0.24191620959030      0.91274980193463     -0.54412285100220
  C          -0.34274534318950      1.67866518499397      0.49435528487493
  C           1.63469471049352      1.24106982319080     -0.99911947133786
  H          -0.43363137719085      0.76136477833341     -1.38359668927816
  Cl          0.70609743869617      2.39796757677691      1.71195218721387
  C          -0.02872280831502     -0.88715537723927      0.24971507513787
  C          -1.38199667350584     -0.86051041234042      0.63493880165541
  C          -1.82194040929406      0.03583968834928      1.61393429357620
  O          -1.55067290841841      1.54331346866017      0.79561325913566
  C           0.31070692937278     -1.98791994353937     -0.73419770835220
  H           0.71937626586703     -0.78900352718005      1.03150528949773
  H          -2.10781900397136     -1.25667815751467     -0.06005861241171
  H          -1.19066216184961      0.22187006339251      2.47512334836311
  H          -2.88105222515593      0.09122404361843      1.81793312509496
  Br          1.81311412112071      3.19971517684785     -1.24129578695573
  Br          3.03860802803303      0.69700694238137      0.22591650403889
  Br          2.02117903734297      0.50803798638368     -2.75830568591307
  Cl         -0.29625187615557     -3.54170882895056     -0.04825720276900
  Cl         -0.49807503830368     -1.75228067163766     -2.30141203810150
  Cl          2.04787708483334     -2.21356761646100     -0.98062112246720
