20
Coordinates from ORCA-job NEB_reactant E -51.991357347850
  C           1.41389286246783     -0.42245259284188     -0.40682270715910
  C           2.04707836585792     -1.50255691696338     -0.88626963415412
  C           1.90041759299806      0.95975921807513     -0.56633646182246
  H           0.48778903757778     -0.53894765716105      0.13389864053941
  Cl          3.52423221491154     -1.39493546894887     -1.75555080117564
  C          -0.09747195852826     -5.32533965436936      0.85619385557597
  C           0.29575552074770     -4.58254333060335     -0.16575768363063
  C           0.47047139247398     -3.09953035213540     -0.09102098924583
  O           1.67053884783089     -2.77813673088236     -0.78389075755416
  C          -0.31618363151548     -6.79503680458422      0.82181915062381
  H          -0.31013468202475     -4.88752110007052      1.82203219630706
  H           0.51822725898360     -5.01623876674276     -1.12923422018477
  H           0.52817079171407     -2.75823996352406      0.94919882032249
  H          -0.38016923195588     -2.60737478471443     -0.58527489557193
  Br          0.66830493095800      2.20205801777181      0.28484103854492
  Br          3.67143064631354      1.24338914468334      0.26275396121689
  Br          2.04860994675841      1.50005119431062     -2.46059481989429
  Cl         -2.02898043045698     -7.13364865567289      1.22103494942710
  Cl          0.04743170565294     -7.53710970257103     -0.73902259923751
  Cl          0.70948881923511     -7.56534509305533      2.06730295707279
