21
Coordinates from ORCA-job NEB E -33.016279258010
  C           0.07788838316915      0.74978164710758     -0.79022174506773
  C          -1.15978189086868      0.85225179066105     -0.15925654009897
  C           0.19849488496076     -0.20579653445781     -1.94088400676327
  H           0.67282206082954      1.65048354601948     -0.89030988724609
  N          -1.42866685945541      1.96834693470727      0.62668743527195
  C           1.02782284154718     -0.27128121517744      0.81325276433026
  C           0.18629771448434     -1.38345066823208      0.87292862147780
  C          -1.14774921685002     -1.21309173039362      1.25453860619998
  O          -1.89912321445808     -0.18155664527774      0.01278896329741
  N           2.36112971238673     -0.40666236014249      0.50196955071795
  H           0.83145609741868      0.54702528328319      1.49744063963566
  H           0.46003691528839     -2.25564746903916      0.29628183074856
  H          -1.35652688279937     -0.53773417122985      2.07422713854259
  H          -1.80839420521048     -2.06534372517015      1.20457537549331
  F           1.50990821882883     -0.56406418320193     -2.18309330422185
  H          -0.15363011935706      0.25611622050511     -2.87357217323224
  H          -0.36151853628003     -1.12420667085344     -1.75020040076319
  H          -2.36992592444028      2.00513193747987      0.98582398708870
  H          -1.06682438152096      2.85164268138130      0.30812895067478
  H           2.56689830190333     -1.12237610793674     -0.18038197529265
  H           2.85938610042343      0.45043143996758      0.31927616920706
