21
Coordinates from ORCA-job NEB_product E -33.062788669350
  C           2.79103389545683     -0.06985127063802      1.26423352524015
  C           1.39216787148388      0.42922977295399      1.60878445070665
  C           2.69560483655427     -0.92016843553918      0.00037840265649
  H           3.45015870772100      0.78397457035639      1.07864129742723
  N           1.38648945853150      1.50603299676782      2.42612361009500
  C           3.38696904030968     -0.83241760314554      2.48110261978291
  C           2.91577268011104     -2.26257818970794      2.52460550969629
  C           1.95688104063469     -2.69988966087163      3.31788185965140
  O           0.37574225209102     -0.08610062134088      1.20428988735500
  N           4.83648886477831     -0.69030203107904      2.43663606472820
  H           3.05053982090299     -0.32510837537539      3.39549081184592
  H           3.44007002042937     -2.94076965897040      1.86344062817241
  H           1.42601032952738     -2.03845785998833      3.98299288303298
  H           1.65146059849979     -3.73220214877470      3.32822838702442
  F           3.91956419922205     -1.44218244963016     -0.34612906596829
  H           2.35975014335154     -0.31268395086825     -0.84505642907178
  H           2.00931347403467     -1.75816671716250      0.14552330993242
  H           0.50315638859771      1.88110915752558      2.72958145195153
  H           2.23481451610018      1.92379032864035      2.76403234706700
  H           5.19854267516192     -1.10704073147168      1.58470271114197
  H           5.25746918650018     -1.17801712168049      3.22021573753211
