18
Coordinates from ORCA-job NEB E -39.110099791660
  C           0.84248122480298      0.76693955094212      0.50241491136493
  C          -0.32403901865840      0.16364510697460      1.01019316238777
  C           0.76439671758884      2.11948736273374      0.05508897148389
  H           1.77446902823851      0.55304682167616      1.02128452189867
  C          -0.14291889119972     -1.04525688137847      1.91486532344013
  C           0.96768280645472     -0.10374389930022     -1.20744138442815
  C          -0.29130454368312      0.14412918210363     -1.74396769663299
  C          -1.43123617936241     -0.41257583224672     -1.08149676813489
  O          -1.45081396583444      0.26785218088995      0.36650570093073
  H           1.81843854074918      0.38441846637679     -1.66419584809920
  H           1.18361033504931     -1.09855190729487     -0.83876532897363
  H          -0.43744213867721      1.03487819961752     -2.33799255444747
  H          -1.37316834923602     -1.47185643113017     -0.83888991782153
  H          -2.40130586716293     -0.13222544169822     -1.47466695621552
  N           0.70668195481730      3.20607394305364     -0.29430092257825
  F          -1.25036425580489     -1.35901538523521      2.58258161518255
  F           0.20820334339647     -2.15778129058568      1.21644413365902
  F           0.83662925852184     -0.85946374549859      2.81233903698395
