18
Coordinates from ORCA-job NEB_product E -39.139057605510
  C           2.44817719249981     -1.04468756283729     -1.38070296427991
  C           1.62597190241335     -2.07091858061239     -0.63120485915375
  C           2.23548186703090      0.28512065803505     -0.84538040265549
  H           3.50427620979173     -1.29827038448175     -1.20114487441072
  C           1.71386310053580     -1.92753581368202      0.92004412401082
  C           2.14618530254800     -1.08305117075681     -2.89362884667830
  C           0.74045950693652     -0.64860754989730     -3.18387964755018
  C          -0.15731311114902     -1.41276005261146     -3.77411159399696
  O           0.97042513208359     -2.93686833008133     -1.12193982270994
  H           2.84926432089900     -0.41635807172776     -3.39973212902313
  H           2.30308171070109     -2.10168662479959     -3.25189094595302
  H           0.49472622466074      0.35740995953637     -2.86922486040370
  H           0.07023058644722     -2.41873674146368     -4.08525883048465
  H          -1.15664750833735     -1.06526979955878     -3.96893644442990
  N           2.06460291621168      1.34797361818238     -0.46754508625496
  F           0.84417036474571     -1.01581750716873      1.36685894674547
  F           1.44666006876860     -3.07922854141926      1.53165881709181
  F           2.93798421321263     -1.54150750465564      1.31341942013649
