18
Coordinates from ORCA-job NEB E -33.520130520700
  C          -0.07708111437355     -0.42768184921986     -1.39619234830868
  C          -1.09724921807065     -1.13021873884990     -0.76499892119074
  I           1.72858041436718     -1.46366504629987     -1.72794764132777
  H          -0.34662049068141      0.21453928550324     -2.22232099914078
  O          -2.36151107991472     -0.66302171983548     -0.97388226820935
  C           0.27930345473532      0.84415026299011      0.18375785608440
  C           0.54500807592393     -0.06368528713478      1.19653149015017
  C          -0.47994581596448     -0.94160360867932      1.61481394782734
  O          -0.87524510850349     -1.87905436190513      0.24585431923638
  C           1.34235006823369      1.80543737877414     -0.28172397193102
  H          -0.71331453353812      1.27983519904948      0.11913938123935
  H           1.57199533676397     -0.35367740596809      1.36320266629328
  H          -1.46003145084981     -0.50945847978769      1.79481148267388
  H          -0.21656329270722     -1.72043764021333      2.31645490922857
  H          -2.96705522567945     -1.10498374637950     -0.36251526228603
  F           2.59907505320047      1.39712014291563      0.06909729163080
  H           1.18604417926540      2.78189617168243      0.19553829079415
  H           1.34226074779295      1.93450944335791     -1.36962022276397
