18
Coordinates from ORCA-job NEB_product E -33.571052201920
  C           2.14011895756562      2.31885000792032      0.76827562821603
  C           0.85201113679960      2.88179648003636      0.17665803913787
  I           1.93319101986593      0.14994990253876      0.74455509748755
  H           2.98121924857281      2.52960745297477      0.10058761132345
  O           0.62114240657948      2.57044816127186     -1.10021008815406
  C           2.43292758480241      2.82373074360117      2.17762798802911
  C           3.61482389337455      2.11123965631664      2.77171458671811
  C           3.58120271466455      1.45953511053611      3.91776969901755
  O           0.10040772098996      3.57140305806559      0.79884831803923
  C           2.72431808836732      4.33194349843282      2.12597282572241
  H           1.55030537636277      2.67143533615912      2.80715374398425
  H           4.52996579947292      2.17808015437745      2.19655557122368
  H           2.68148045676791      1.39365435873006      4.50660190929324
  H           4.45140559443376      0.96734182633866      4.31522982904957
  H           1.25373309950422      1.93940245514415     -1.47450615366244
  F           3.01482769109062      4.78627447692983      3.38366101935266
  H           1.85458542553502      4.89462340264717      1.77599469350924
  H           3.60063378525055      4.54878391797917      1.50330968171256
