18
Coordinates from ORCA-job NEB_reactant E -33.551487029940
  C           1.06884831412545      0.39373165403910     -0.03681618347319
  C           2.01104911616790      1.02864971584349      0.65625286187442
  I          -0.50564860439407     -0.55333879931776      0.95876685807015
  H           1.07831364481449      0.33549497675416     -1.10552982861611
  O           3.05925525242065      1.59320252557808      0.01644471976827
  C           2.41670596286212      3.89592679787827      2.24910230975677
  C           3.29381196601272      3.01044023512149      2.69707340029148
  C           3.04797470414322      1.52673578196985      2.74559148333985
  O           1.91945613102372      1.10358766022505      2.00795939479092
  C           2.65123736719756      5.36977685588927      2.20655966480096
  H           1.44463441701737      3.59198589436345      1.88412280927992
  H           4.25321696155010      3.32717628180684      3.08105675655531
  H           2.82898483016343      1.22820423910501      3.77655337012636
  H           3.94850432943061      0.98318493871634      2.42341883372042
  H           3.46705797746148      2.28001876165103      0.56510576493024
  F           3.91696839898992      5.69835353092666      2.61857853743399
  H           1.95147866518739      5.89292535358025      2.86987825440112
  H           2.53775056582593      5.75714359586944      1.18608099294912
