23
Coordinates from ORCA-job NEB E -40.727014002620
  C           0.01879219817757     -0.56587115079275      0.35443657260391
  C          -1.17460510185445     -0.51833133661661     -0.39860367773991
  C           0.04366401150943      0.13233499544425      1.70836953946770
  H           0.46996755029310     -1.55310610617153      0.41724568839674
  C          -1.46739576228722     -1.66369514186498     -1.36404357028708
  C           1.19050530073890      0.44368260644869     -0.70811507436289
  C           0.45318839737570      1.20356060100126     -1.63590906371261
  C          -0.71612140232306      1.83128854581818     -1.11805506713648
  O          -1.70089197519313      0.62637744828107     -0.71114016282696
  Cl          2.36321746305023     -0.67036896176223     -1.38227803893856
  H           1.63750712005739      0.98145801100567      0.11968479586567
  H           0.39981765211671      0.83864497097038     -2.65356307310388
  H          -1.32678846750804      2.37429931871092     -1.82972741719416
  H          -0.59885756267716      2.37198909447137     -0.18147487939065
  C           1.30595288135649     -0.17576280880896      2.50462132500044
  H          -0.81740104977210     -0.23680046239503      2.27150728353692
  H          -0.08400365507237      1.20978158023909      1.60115768446538
  H           1.39283599172098     -1.24593193608924      2.67623284418840
  H           1.26541410083346      0.32256144351545      3.46994699801444
  H           2.20415510653977      0.15671899884763      1.98984492022575
  F          -2.78085633384348     -1.99352198434814     -1.34696516025996
  F          -1.18823667892705     -1.29609940254639     -2.64311646253589
  H          -0.88985978431168     -2.57320832335810     -1.14005600427631
