23
Coordinates from ORCA-job NEB_reactant E -40.770636816220
  C           1.93163809385821      0.12890841867857      0.08024155209390
  C           2.13842292690384      0.55044701228671     -1.16900365392508
  C           1.65192781289585      1.03299099721935      1.23571186341875
  H           1.95171294572308     -0.92927441581849      0.29029360821999
  C           2.39838865590813     -0.46533888927769     -2.25777060381857
  C           2.75051399373689      1.85236589681778     -4.95345287609033
  C           2.09247963578911      2.23838074798038     -3.87466179426902
  C           2.75408688534317      2.44289391859596     -2.54348719003739
  O           2.02915464209660      1.88040796150973     -1.45846565188993
  Cl          1.99605061434351      1.66414347722299     -6.48111021680043
  H           3.80775950946337      1.63428746865468     -4.96069361462138
  H           1.02892710363369      2.42472486629153     -3.89992966642600
  H           2.75902436706507      3.51503293025986     -2.31306040605303
  H           3.78850428261411      2.08403719281117     -2.55955200112099
  C           2.49182624278543      0.65527998726748      2.45358990563908
  H           0.59197808078975      0.95715159653509      1.49493733411146
  H           1.85003935820311      2.06294067658473      0.93916793139395
  H           2.28291590549796     -0.36700020857535      2.76077053812236
  H           2.26778643390870      1.31749128383423      3.28585049297983
  H           3.55159713719605      0.73581158696312      2.22402841329051
  F           1.45800033503042     -0.42118958017810     -3.23438570968204
  F           3.59669143297837     -0.28627468898074     -2.88033397114673
  H           2.39917360423555     -1.48581823668299     -1.84708428338893
