19
Coordinates from ORCA-job NEB_reactant E -46.406168095480
  C           2.35280602624391     -0.49284234841122      0.48589798019228
  C           1.47430467092895     -0.78113163066327      1.46579343547911
  N           2.44233496765013     -1.08642210802715     -0.80431657181118
  H           3.11690685100290      0.25374513724530      0.65137518198634
  C           1.52049811157234      0.06429001819659      2.72324482451206
  C           2.75638137281691     -3.64570536201080      1.48613260476859
  C           1.75295100528233     -3.68088220050875      0.62823946017151
  C           0.48984544865736     -2.88011962853427      0.75582121377866
  O           0.58298893246509     -1.74867451402022      1.61248073702134
  I           4.50124050034236     -4.78372234563391      1.25750086534716
  H           2.76851827320037     -3.03941860163499      2.37685710181886
  H           1.78340399196356     -4.31521527974025     -0.24505240915192
  H          -0.29678127693201     -3.48617385487607      1.21833020396853
  H           0.15847599211009     -2.57022260253840     -0.24343665208573
  O           3.55015681095720     -1.19351095125662     -1.27558718418895
  O           1.40882147268709     -1.40366947933805     -1.36302199648672
  Br          1.60234375475491      1.96497454258137      2.32090424630515
  Br         -0.03097249085475     -0.25948823209755      3.82889233159952
  Br          3.12267558515125     -0.42571055873172      3.75544462677541
