26
Coordinates from ORCA-job NEB E -48.302967503090
  C          -0.07751468713041     -0.94588761658970      0.49623473840529
  C          -1.47390207828304     -0.88311278791972      0.44026044657600
  C           0.61205256884813     -1.08413078453862      1.83446903357429
  H           0.39302487474983     -1.59998776348421     -0.23055909576372
  C          -2.13522310628524     -1.40935130122130     -0.83103461328006
  C           0.44529620641454      0.93012160556509     -0.04721211265542
  C          -0.75593916400038      1.63943770734062     -0.04899764891810
  C          -1.59053789324282      1.58534372869698      1.08361032071757
  O          -2.14803708205116     -0.03644270470937      1.13062135626735
  C           1.22501183596892      0.82680602208290     -1.33464895948229
  H           1.06424757545706      1.04460476351198      0.83482770217447
  H          -1.22849830882803      1.81030408559720     -1.00962458858531
  H          -2.54128856824904      2.09915293036761      1.04106862467431
  H          -1.11986059869729      1.62213387827677      2.05800038526095
  F           1.96032527341703     -1.03300761337237      1.69612427470846
  F           0.30040633791110     -0.12538200117407      2.73308417253932
  H           0.37174916573878     -2.05689520515360      2.29765808806383
  F          -1.69398860690422     -0.74774361562033     -1.93839774002662
  F          -1.81013242431874     -2.70982949850533     -1.03283191875007
  H          -3.22917861884643     -1.31871614221772     -0.79401085089638
  C           2.59726525406251      0.18445317197053     -1.17441786416090
  H           1.35833752121887      1.84478785015765     -1.71311660152656
  H           0.63818953455587      0.28583092617190     -2.07919645280779
  H           3.18404229752649      0.71588678208274     -0.42888845932467
  H           3.13445883486531      0.21526281549140     -2.11910674029270
  H           2.51969385610235     -0.85363923280703     -0.86391549649127
