26
Coordinates from ORCA-job NEB_product E -48.345016429090
  C           2.86551459892071      1.25271707767083     -1.57228279806124
  C           1.59419227273777      1.07549903994549     -2.37125869859729
  C           2.56480203782629      0.90870049952633     -0.09911795282223
  H           3.59804438350480      0.50974234748600     -1.90526273217411
  C           1.41866542149690     -0.35979112242866     -2.94062391587758
  C           3.49786285716578      2.66223746981894     -1.70013917543177
  C           2.64814751079932      3.73082704457095     -1.07326936162534
  C           3.05019827494844      4.47598854031069     -0.06186456135682
  O           0.76426201211246      1.90544359589327     -2.59571641546760
  C           3.78269918492812      3.02332137654233     -3.16638206384504
  H           4.45341003248680      2.61845915376021     -1.16503115151344
  H           1.67317450722932      3.87322959987864     -1.51469831551305
  H           2.42571342280713      5.24488746507623      0.35818817192083
  H           4.01690201401578      4.34147295831309      0.39637735737199
  F           3.64683580746963      1.16780831481831      0.66764532651345
  F           1.55182338344506      1.64491731198436      0.40117107097370
  H           2.30554027714024     -0.15224742370408      0.04340718113277
  F           2.44665509225958     -0.64996760170257     -3.77169665413064
  F           1.46935957290429     -1.27275942304164     -1.94082685954705
  H           0.47309171630906     -0.48161453140660     -3.48707020358781
  C           4.78107082071368      2.09196217266356     -3.84554870698149
  H           4.18566126337081      4.03835931626267     -3.17260084650297
  H           2.84813732700066      3.04033476576977     -3.72990129402140
  H           5.68537679512340      1.99895060498063     -3.24775554155356
  H           5.05705737265845      2.49511023949183     -4.81671944073646
  H           4.36530204062554      1.10071120751944     -4.00652241856583
