26
Coordinates from ORCA-job NEB_reactant E -48.334536096240
  C           1.82490942551219      0.03924693379971     -0.77525468075410
  C           0.93683472022139      0.82121039404481     -1.40976746509131
  C           3.03282106324454      0.40094428254834      0.02921044006198
  H           1.65245108591031     -1.02332347073238     -0.82141273139513
  C          -0.23345686465282      0.12399760481518     -2.10371770088742
  C           4.07594879072811      3.51301306266123     -2.28358097951525
  C           2.82260447706675      3.12120372662698     -2.43099272749059
  C           1.81065599642129      3.09250194815135     -1.32279610632443
  O           0.79028320726498      2.12948197861841     -1.57261698835866
  C           5.08242343365830      3.56438157417109     -3.38538183714226
  H           4.43833044622060      3.80732999953146     -1.30756082712422
  H           2.44037318345787      2.81919625753177     -3.39687392360225
  H           1.25585929830444      4.03813885502046     -1.30201179630159
  H           2.28024837537073      2.95344554999051     -0.34872424965164
  F           4.01928742886940      0.97973646552247     -0.70614436595745
  F           2.75721087646554      1.28518342760637      1.02968652761406
  H           3.46939921882136     -0.48930048125492      0.50628240007384
  F          -1.41057832935083      0.54312640003266     -1.59116386438736
  F          -0.25094534275088      0.43997959884684     -3.41834574507743
  H          -0.19764488170317     -0.97189559465954     -2.01912235665922
  C           6.29277822173040      2.69304532731174     -3.05207538484522
  H           5.41298701956912      4.59849346902424     -3.51994316451815
  H           4.62837606476612      3.22871047313628     -4.31914817112405
  H           6.77689256420833      3.04603909217346     -2.14475005172798
  H           7.01573702761757      2.71873876257602     -3.86383599344568
  H           5.97931349302833      1.66457436290546     -2.89245825636848
