23
Coordinates from ORCA-job NEB_reactant E -40.406993505090
  C           2.57594756634521      1.79001068173998      0.30630579177590
  C           1.41859662791718      2.42261176449955      0.17243912857802
  H           3.14138414726252      1.76238357974566      1.21932097800435
  H           3.00276282773006      1.27504306317723     -0.53355392900954
  C           0.62720219028061      2.44776156530781     -1.10663208446256
  C           3.48432273398739      3.61706711142846      3.49393598524912
  C           2.55422661343453      3.87122343491957      2.58658556959297
  C           1.27930804757457      3.09200393427713      2.45616775931434
  O           0.75340875784633      3.10937188090472      1.15362921558177
  C           4.74751475630774      4.37482449249846      3.67456217562292
  H           3.37548547736855      2.79925141328038      4.19361655014472
  H           2.66284118697663      4.68407407071528      1.88280786652570
  H           0.50841050349815      3.57307824516259      3.07032770950524
  H           1.41388786320433      2.06111617871020      2.81081539111538
  C          -0.50064998085792      1.41626510907189     -1.06549695696935
  H           1.28859671444936      2.24178865921005     -1.94754170418572
  H           0.19839983355670      3.44363674796775     -1.22882217418225
  H          -0.09266970667128      0.41450614867199     -0.95176755063443
  H          -1.08075731222886      1.45369549649207     -1.98423416918048
  H          -1.16280449191912      1.61895869623435     -0.22757809117422
  Cl          4.82040406044526      5.02013294892632      5.34425572392629
  Cl          6.13565398760778      3.26476455636606      3.45577306767347
  Cl          4.94082759588428      5.72623022069251      2.55348374718836
