19
Coordinates from ORCA-job NEB E -40.820729900890
  C           0.59314957791076     -0.08678383825273      0.87194942465623
  C          -0.64931702091557     -0.71769075426520      0.68640018945725
  C           0.60778783209366      1.31910621143883      1.43794600723249
  H           1.37259260728089     -0.71731817462465      1.29738767626211
  N          -0.66046760016166     -2.16360761320155      0.58387004003500
  C           1.08640945866354      0.17944729913401     -0.93958024893333
  C          -0.02875027111506      0.81342990068872     -1.48664739424450
  C          -1.30398445605601      0.13820640106928     -1.42926567471083
  O          -1.61333799020492     -0.09549330304236      0.06024562398488
  F           2.22541963618570      0.89523140100932     -0.88538069399946
  H           1.32408956611121     -0.85528894223235     -1.17877814016729
  H          -0.00453189054000      1.89024447076814     -1.56256746464208
  H          -1.32608364812897     -0.86673556563601     -1.85493258895840
  H          -2.14423387483524      0.72980861502749     -1.77836431509715
  F           0.63475447998022      1.22985236713551      2.80369934533476
  H          -0.30031286482766      1.86796094567962      1.16795157211568
  H           1.50563578138734      1.87095813963805      1.14329971057592
  O          -1.57322474551745     -2.66018159222277     -0.04294027006116
  O           0.25440542268922     -2.77114596811134      1.10570720115987
