19
Coordinates from ORCA-job NEB_product E -40.846404064860
  C           2.67554447679276      0.01971731079337     -1.09359114779893
  C           1.45609606993637     -0.82173648487990     -0.90570025450325
  C           2.53814308109748      1.34243976218089     -0.33299506429812
  H           3.55554963360311     -0.51824017898880     -0.72197359174474
  N           1.72138337222306     -2.33323320519642     -1.14108120879586
  C           2.89270072036390      0.26867894870735     -2.61600745195793
  C           1.71700463218332      0.94956042776352     -3.25052821737197
  C           0.74145396707672      0.30046969832105     -3.85664492768289
  O           0.34528565518903     -0.50613401616384     -0.65279784461269
  F           4.01201184528618      1.05693837798814     -2.74313115212008
  H           3.12960396617575     -0.68371239836706     -3.10724748367214
  H           1.72287865696922      2.02690899639599     -3.17572678321957
  H           0.73599862134510     -0.77379248736850     -3.94781730375543
  H          -0.09569017472942      0.81823857771051     -4.28895186052314
  F           2.67626081661386      1.10440349058608      1.00716094966803
  H           1.55074548976981      1.79040896419749     -0.48176385067828
  H           3.33376634856342      2.03599204029045     -0.62035627580669
  O           0.78341001926752     -3.05743705055443     -0.96431905165750
  O           2.83065280227280     -2.63987077341586     -1.50772747946881
