19
Coordinates from ORCA-job NEB_reactant E -40.841899832580
  C           1.98798405686726     -0.17813908420859     -0.33475195126735
  C           1.45183996087978     -0.95704890129327     -1.27467134908105
  C           2.09123928424554      1.30845697759060     -0.26087350975517
  H           2.41178105896410     -0.69293706108775      0.51886824188386
  N           1.51279082895967     -2.41493966372043     -1.05750457161994
  C           3.27157088394202     -0.07324993450020     -3.71658421253424
  C           2.32017721992705      0.83171052185932     -3.57715841643174
  C           0.93545531503881      0.51590800736887     -3.09700220314439
  O           0.82648091439090     -0.73133984389904     -2.44250461895666
  F           4.49030156067570      0.26265783987232     -4.15006483950225
  H           3.18691747513564     -1.13081855336331     -3.51236765959787
  H           2.50833591918490      1.86191466011902     -3.84015205007002
  H           0.25983004859024      0.42268563406536     -3.95483316959070
  H           0.56225919005121      1.32485992533856     -2.45766486186042
  F           2.91776859812231      1.65688440870176      0.77230858637450
  H           1.12026029165257      1.77441719134581     -0.04501883392452
  H           2.52570575074915      1.74744922370695     -1.16770005784113
  O           1.26549450994465     -3.11225228312754     -2.00766394708167
  O           1.81690713267851     -2.80231906476845      0.04543942400076
