22
Coordinates from ORCA-job NEB E -47.559991565460
  C          -0.08252548317502     -2.04831379116492     -0.37024517946223
  C          -0.35506917804770     -1.22092137678513     -1.40513591587062
  N          -0.27697235322764     -1.85231031840624      1.00987992438319
  H           0.36629896455216     -3.00553764106765     -0.58681388031278
  C          -0.17684426687288     -1.73240346289327     -2.80574541739640
  C           1.79505866998473      0.43574417199482      0.46883780103588
  C           0.67377113230343      0.88369224517601      0.33212540123911
  C          -0.64637335548438      0.92254025816580     -0.30223733718720
  O          -0.71380850146206      0.05847706614206     -1.42920032177842
  C           0.33837113618073      2.26136119265155      1.94808029709729
  H           2.77763964218389      0.23480654381582      0.78666734264658
  H          -0.43303316884227      2.94151442093577      1.46197341007247
  H          -0.84996134161699      1.91730052283232     -0.70703039380020
  H          -1.41080631580093      0.65795657063704      0.44100125168681
  O           0.46710690689394     -2.45177643941418      1.76262058479321
  O          -1.20044349170542     -1.14599834375865      1.38640854720529
  H           0.81195446892568     -1.45735226428711     -3.16977824304159
  H          -0.91106795814291     -1.25888086841472     -3.45213728798950
  H          -0.28400360589036     -2.81030106002114     -2.85266455318044
  Cl         -1.40563037312785      4.33410657203767      1.97397617689459
  Cl         -0.26188811227640      1.27427443231649      3.17796288449519
  Cl          1.77822658464822      3.06202156950768      2.33145490846979
