20
Coordinates from ORCA-job NEB E -52.514927993840
  C           1.08153345101900      0.43809881933683      0.42223883871257
  C           0.54862158300958      0.47896846209961      1.72437805181055
  C           0.94927618470375      1.71727612680041     -0.38000806043514
  H           2.08346483131323      0.03098493513239      0.31627328274111
  Cl          1.26934409362527     -0.62732378020096      2.88217778460445
  C          -0.13256622723557     -0.88573375980823     -0.33097513338967
  C          -1.39879276203618     -0.35847907099310     -0.04291278783873
  C          -1.75434160773772     -0.17210840293863      1.31884716596808
  O          -0.63943782690515      0.86324364365330      1.94092483024155
  C           0.19514534275539     -1.25181940577917     -1.75202060210517
  H           0.22605945188647     -1.67191291509305      0.33572210569762
  H          -1.91901879029495      0.21785425488076     -0.79358831125163
  H          -1.59507296933563     -1.01301683961964      1.98946199297017
  H          -2.68259336141830      0.35252068922966      1.50425293130778
  F           1.58378960599311      2.72028481405783      0.24554959170342
  F           1.52820205088312      1.60694558985703     -1.58162417485977
  F          -0.30226099204921      2.12730467094959     -0.58558632750573
  Br         -0.65679926773076     -3.01267802342608     -2.06470629545122
  Br         -0.49158613867084     -0.04866912113492     -3.10772026730907
  Br          2.10703334822537     -1.51174068700364     -2.04068461561117
