20
Coordinates from ORCA-job NEB_reactant E -52.549607952170
  C           1.61072850901437      0.15545182853297     -0.02869666098774
  C           1.01991047619939     -1.04496182146168     -0.05531794142569
  C           1.97117343592899      0.85174943278540     -1.29888787435301
  H           1.85132667983243      0.66115664491470      0.88700987361505
  Cl          0.61153934827085     -1.82925450522470      1.42641887549125
  C          -0.08871723698755     -4.51855040699621     -3.09665353894787
  C          -0.14852780271893     -3.27938477243368     -2.63613804071811
  C           0.09392034771351     -2.92222662744785     -1.20638004761426
  O           0.73585115688037     -1.65567482436829     -1.19502256797509
  C          -0.35824576848961     -4.94678953756909     -4.48620156102046
  H           0.15949060563447     -5.34501463344661     -2.44052054486955
  H          -0.38298940039551     -2.43664549055467     -3.27146825590649
  H           0.71533275311156     -3.67207146278699     -0.70298583614959
  H          -0.86918778428929     -2.85454045402540     -0.67922548130869
  F           2.86803961786131      0.17168040508177     -2.03639503696588
  F           0.91432823278748      1.05520621756813     -2.10589153686009
  F           2.50719364744912      2.05389927492362     -1.06148802213702
  Br         -1.87308755021823     -6.21487970961332     -4.47876749703606
  Br         -0.79013446825295     -3.51345154517325     -5.71752993652036
  Br          1.21745520066822     -5.90059801270483     -5.18695836831034
