20
Coordinates from ORCA-job NEB_product E -52.557741465700
  C           1.49382541805972     -2.02988129716980     -1.42601048684373
  C           0.93720633187942     -1.56920162730092     -0.08614632896806
  C           1.94543419889025     -0.79144866118679     -2.21425366862866
  H           2.40379884312574     -2.61887280807415     -1.25642492261797
  Cl          0.98137458475803     -2.86039947842932      1.10052393599344
  C           0.40222208351656     -2.94283020575068     -2.04396927719822
  C          -0.94466370441532     -2.26471040965486     -2.08477526160600
  C          -2.01607527774127     -2.77983399604698     -1.51162533267455
  O           0.49060482576761     -0.50876503793258      0.17507445475450
  C           0.72417805493794     -3.54886045680962     -3.41285711917971
  H           0.33542334813526     -3.79651653992024     -1.35359003739404
  H          -0.99947883587665     -1.33096614655796     -2.62387779971770
  H          -1.98903193591341     -3.71190939691872     -0.97052146960572
  H          -2.96855362888291     -2.28398256506454     -1.56581016486317
  F           2.72607670237863     -0.02596237919084     -1.44308721589372
  F           2.69361151360288     -1.13113938966639     -3.27089917791218
  F           0.95623411454750     -0.02376556941169     -2.66178235897381
  Br          2.52370322491702     -4.31742951636087     -3.46112454647948
  Br         -0.52911757980092     -5.02830279894030     -3.70347867816911
  Br          0.50402771811393     -2.33372171961277     -4.91516454402211
