23
Coordinates from ORCA-job NEB_product E -32.339818408930
  C           2.54494774774189     -0.81843300095789      0.87138953852888
  C           1.16664206451203     -0.65063012564508      1.51385313754313
  C           2.41346668321849     -0.60561032229288     -0.64247816211381
  H           3.23425657314045     -0.07718362390561      1.28616333738693
  C           1.15289432976361      0.19861427962438      2.75662572603137
  C           3.02986604098258     -2.21618028388555      1.30543362812392
  C           2.43725065422568     -3.33886183545007      0.52559931529002
  C           1.58507491819155     -4.20541333185408      1.04049853204792
  O           0.18092321416219     -1.16954509904550      1.06012032018418
  Cl          4.82774048799947     -2.31502095355487      1.19726025613735
  H           2.81330307451712     -2.34814314306391      2.37077331609509
  H           2.75448991812795     -3.41879461243658     -0.50347325041391
  H           1.26001588733670     -4.14526586547010      2.06604261444120
  H           1.16418105708541     -5.00112358022109      0.45141439458897
  C           3.73779544952641     -0.64038894676381     -1.39293617438632
  H           1.95175353140367      0.37505764665746     -0.78953925544362
  H           1.72412991542403     -1.34901279720847     -1.04448240632989
  H           4.43873950264414      0.07301301327932     -0.96481366043715
  H           3.57569170933662     -0.37811656619739     -2.43603304261450
  H           4.19222781579370     -1.62561820535690     -1.35626479334169
  H           1.92227371329901     -0.13389711697305      3.44979464873748
  H           0.17755674387455      0.15724107965097      3.23413301614595
  H           1.37287896769275      1.22881339107068      2.48131896379850
