23
Coordinates from ORCA-job NEB_reactant E -32.322860810020
  C           1.80630514123033      0.03848891892493      0.09844095334642
  C           1.55380246935532     -0.62417360171902      1.22169089019568
  C           1.63599208444993     -0.48525793437391     -1.29389690061846
  H           2.16542582392545      1.05494967971116      0.17373298023496
  C           1.68409124647394     -0.02156213434003      2.59039146716994
  C           3.09359341452071     -3.84757720321773      3.04755316233701
  C           3.08991756553860     -2.98920094733903      2.04320720179994
  C           2.00306135148586     -2.95640145467823      1.00535875900651
  O           1.05908670992522     -1.92467524238183      1.23150746674417
  Cl          4.31845720244619     -3.86929574053102      4.25445910601675
  H           2.33794919348348     -4.60581951600631      3.18446945798286
  H           3.86390205932406     -2.24023187432267      1.95125605205685
  H           1.41582598281179     -3.87739919300637      1.03512922897803
  H           2.46286866339091     -2.85017550226867      0.01370280017031
  C           2.97710180981855     -0.60261883210152     -2.01999033788266
  H           0.99809742643112      0.20893172057701     -1.84848049657018
  H           1.13120032723262     -1.45189721543813     -1.26969675035903
  H           3.46617433570427      0.36783879456692     -2.07010996182156
  H           2.82967580707412     -0.96760263318378     -3.03388122880201
  H           3.64086976011687     -1.29034975029460     -1.49912653794158
  H           2.35874541475766     -0.61628145486116      3.20511263100490
  H           0.70992999778600     -0.02560467834891      3.07725370335907
  H           2.05082621271700      0.99861579463288      2.53301635359209
