19
Coordinates from ORCA-job NEB E -30.054245719590
  C           0.47539991478882      1.09970350334295      0.14921542037976
  C          -0.75104055617938      0.46975159710852      0.40111741740133
  O           0.51673064557195      2.10910274338521     -0.76760145980554
  H           1.19382297267348      1.27811316078417      0.93813678318084
  O          -0.94775383475434     -0.38119800542725      1.46082263539405
  C           1.21535726098762     -0.48140526585063     -0.88793057954835
  C           0.29629862703560     -0.60063451263294     -1.91501498362164
  C          -1.03315690276917     -0.96535244563130     -1.56939950642384
  O          -1.54680879779548      0.29115488255065     -0.59973174208634
  H           2.20406672163962     -0.10941684950974     -1.11123328402060
  H           1.17914976203231     -1.19658929787411     -0.07775745971562
  H           0.45032833563585     -0.02979541188021     -2.82022264258985
  H          -1.15270359380231     -1.78931292770515     -0.87299453619543
  H          -1.77919957129770     -0.95717814234482     -2.35298819717765
  H          -0.22442237579419      1.98283449053179     -1.38088839319546
  C          -0.16634416344348     -0.20395714375640      2.61736927936434
  H          -0.64772020129259     -0.79647478386945      3.39406390026973
  H          -0.13859604985163      0.84560887204662      2.92355188058801
  H           0.85659180661502     -0.56495446326791      2.47148546780225
