19
Coordinates from ORCA-job NEB_product E -30.106748126100
  C           3.06033426129863     -0.57377091416898     -0.17819372092842
  C           2.03347445295896     -1.23642359718357      0.73517901505990
  O           2.43961982678946      0.49821019135368     -0.83261827542801
  H           3.89485104840578     -0.21813743743053      0.44908118187579
  O           2.66317738718382     -1.93529416182193      1.69026905078565
  C           3.58823566161726     -1.65345611611032     -1.14664661517903
  C           2.46014465067043     -2.31582200849947     -1.87574609285116
  C           2.25224615058635     -3.61806017189061     -1.89034831571342
  O           0.84434198188160     -1.18594290740100      0.61738084710034
  H           4.26160873897857     -1.16980736518291     -1.86347944461869
  H           4.16023018130928     -2.38768104740739     -0.57781827555283
  H           1.78401776934915     -1.64299429591114     -2.38498315696197
  H           2.90824554353528     -4.30374710915713     -1.37784326137718
  H           1.42327859804943     -4.05572833512591     -2.41870108050733
  H           2.98863312884744      0.77174684131364     -1.57668177554354
  C           1.82113709408510     -2.66273002041080      2.57665008068899
  H           2.48162047152401     -3.16944265468020      3.27528385012918
  H           1.22151973155842     -3.38449207805862      2.01873667065861
  H           1.15068332137103     -1.98232681222680      3.10467931836311
