22
Coordinates from ORCA-job NEB_product E -46.276704707670
  C           2.55076821878041      0.83801619194750     -1.61287823450629
  C           1.87186415637032     -0.45501573657680     -1.93141584686375
  C           2.03747626419836      1.28802963651052     -0.23253896448106
  H           3.62400329797418      0.63605777500283     -1.51160084310877
  N           2.41522885500180     -1.64814023462620     -1.10154238954226
  C           2.28359948501586      1.85017555057680     -2.75770422525145
  C           1.20786059167031      2.84798306148808     -2.42102931002691
  C          -0.00855298355944      2.78888023867118     -2.92819892749133
  O           0.98920167200214     -0.68812462037336     -2.68466092952745
  C           3.55579394309335      2.57420082437990     -3.17878834305155
  H           1.94620184381421      1.28205024385048     -3.63571764851950
  H           1.48607914338678      3.63578541182147     -1.73448361170338
  H          -0.30435659894089      2.01094394865261     -3.61248229773013
  H          -0.75931000954987      3.51460776551532     -2.67010306706600
  H           0.95621171393935      1.40296946985225     -0.24041407853737
  H           2.49204070257878      2.23460383054362      0.04413930582235
  H           2.31621568525317      0.55574419390939      0.52072150797861
  O           1.76981466376856     -2.65591845692026     -1.17331494246080
  O           3.42571400728956     -1.46445298369679     -0.46806081522092
  Br          3.15530854407418      3.84583076444925     -4.61135476123666
  Br          4.37226599421805      3.56164774181375     -1.70998411056496
  Br          4.89117080962082      1.30152538320846     -3.86628746691041
