17
Coordinates from ORCA-job NEB E -41.950180278030
  C           0.04775674482799     -0.33562402957181     -1.44646843077370
  C          -0.96290873099289     -1.23169085643839     -1.07995824415726
  Cl          1.66671730953613     -0.98122913050643     -1.55054392504118
  H          -0.14716796069355      0.38628701174626     -2.23234071345372
  I          -2.96341172445749     -0.56804858041326     -1.57366781016919
  C           0.07448563530946      0.68945402942961      0.23072248754536
  C           0.25563347223755     -0.30146247351018      1.19827765509708
  C          -0.76811415600499     -1.26689095902250      1.35953208899190
  O          -0.84440965340658     -2.03115227644214     -0.11435755284178
  C           1.15295633427696      1.73508807312606      0.06928546781105
  H          -0.90692003541103      1.14521116714309      0.12325884036867
  H           1.26460234034487     -0.56006954427394      1.48488684633408
  H          -1.79082812880707     -0.90209812628279      1.41731574445432
  H          -0.56992430902295     -2.09374524851902      2.02836706513650
  F           1.14775346962825      2.29750757667979     -1.14714833624836
  F           0.95637032853873      2.73771471146132      0.94462911899733
  F           2.38740906409662      1.28074865539432      0.28820969794891
