17
Coordinates from ORCA-job NEB_reactant E -41.979228405610
  C           2.17764485466009      1.02129658404418      0.27346101652269
  C           1.10953335276743      1.22236044476965      1.03339481676177
  Cl          3.78122360111167      0.66606802474777      0.82554169940247
  H           2.10438639095972      1.07885278277237     -0.79872486911532
  I          -0.71789927616718      1.65565068192967      0.06697131228953
  C           2.69639705453798      3.36727176835662      2.76993894264417
  C           2.90793080922547      2.18077084524689      3.31565228897657
  C           1.93564701584544      1.04467549468099      3.27295934439170
  O           0.87621609040479      1.22073335655124      2.35169881234181
  C           3.70136160509941      4.47251717467649      2.82120475325487
  H           1.79386889543799      3.63050632079635      2.23877901468717
  H           3.82620613830626      1.97277141358215      3.84665671000681
  H           1.43707681650116      0.96282348562750      4.24595788971010
  H           2.46545248959575      0.10557203218427      3.07995195630302
  F           4.11298306926230      4.82627443320297      1.59060894937732
  F           3.19448019364312      5.58402203774583      3.38079671686919
  F           4.80229089880862      4.16053311908507      3.51745064557612
