18
Coordinates from ORCA-job R E -32.515831531460
  C          -1.19875211690713      0.12819156550594     -2.89132514850529
  C           0.10072663025318     -2.42599426132121     -1.97079220266746
  C          -1.16335932061632     -2.07069372658644     -1.76570012167731
  C          -1.81029420667398     -0.87526442907326     -2.27343357914570
  C          -0.99811357335851      1.50349623251674      0.13578793139991
  C          -0.32504439976246      0.49301646833949      0.65784281614949
  H          -1.80297837377930     -2.71083191986816     -1.17195880968230
  H          -2.87858983271231     -0.80141898609409     -2.12093894306086
  F          -1.89349868901530      1.20465736164608     -3.30235350080235
  H           0.50408828894122     -3.32696869574785     -1.54290585490674
  H          -0.14538803003814      0.22263578781582     -3.10292367039329
  H           0.77867983575269     -1.83516112935766     -2.56169645941713
  H          -1.90579446730920      1.87062217450859      0.57889363387103
  H          -0.59568122334241     -0.05059279741687      1.55023800613021
  H          -0.64547274485026      1.99156212616041     -0.75885690612900
  N           0.88546000561420      0.00724047570907      0.05299831421796
  O           1.45866753844015     -0.88759354114150      0.63471841907958
  O           1.25416467936389      0.51009729440490     -0.98535392446074
