18
Coordinates from ORCA-job TS E -32.509013293280
  C          -0.74779571790821      0.73859034183105     -1.37717434317115
  C           0.49934845998238     -1.62631863629236     -0.27394001257127
  C          -0.81977047740027     -1.54208942264289     -0.53231177834958
  C          -1.43055908673475     -0.41090319786675     -1.13188144444826
  C          -0.34882156804438      1.33444378313478      0.68016239483823
  C           0.41428566044615      0.39302128266612      1.29375127132564
  H          -1.48447081828551     -2.31004453802741     -0.16200162086618
  H          -2.50809777634399     -0.38785782813783     -1.21066442745152
  F          -1.41431068658411      1.80442068595550     -1.84401700761268
  H           0.90366625439181     -2.45115410449141      0.28804923142074
  H           0.31066477542114      0.81233882219462     -1.58466834525731
  H           1.21839117249739     -0.99363312493942     -0.76178398033723
  H          -1.38584318090102      1.44192634249541      0.94539001802923
  H           0.05050732100123     -0.32967699202711      2.00397854531138
  H           0.14023245468132      2.19598044853430      0.25273978970672
  N           1.82516087009109      0.43435842558131      1.17139975986615
  O           2.47505503928296     -0.23485282714385      1.95051130898227
  O           2.30235730440675      1.13145053917594      0.29246064058478
