23
Coordinates from ORCA-job NEB_product E -53.642747732780
  C           2.72436267592264     -1.19386886896431      0.28619681204642
  C           1.37079328997795     -1.03729848202799      0.94014229469982
  C           2.74875548172599     -0.38474080154620     -1.01071095285525
  H           3.50530641981127     -0.84032848583895      0.96720598399088
  C           1.44162652412654     -0.90732024236616      2.49301001110217
  C           2.92353004060945     -2.72474936004545      0.07785746034703
  C           1.97493522466196     -3.30044437816030     -0.93661686237961
  C           0.93996009654328     -4.05103204876245     -0.61219844611745
  O           0.31596306722605     -1.02587548758788      0.38236969943488
  C           4.36424212724635     -3.03762246592292     -0.32639207694628
  H           2.78350055486604     -3.22889823724211      1.04166449636913
  H           2.18920323685853     -3.05942745418155     -1.96739368475031
  H           0.71472143308903     -4.30577589192609      0.41039140654582
  H           0.27315467964301     -4.44041431436350     -1.36040070260534
  H           1.90488094365215     -0.65476528023911     -1.63936260889765
  H           3.67215152479713     -0.54854595281869     -1.55642980339304
  H           2.67558768556727      0.67418546435824     -0.77420906897716
  F           0.24190291973615     -0.81758313647115      3.05487866002747
  F           2.06471823238381     -1.96838581520608      3.03501295879396
  F           2.14451825719340      0.17769810495719      2.84737063012437
  F           4.66815790883438     -2.67667598244742     -1.57918082975192
  F           5.26048908271821     -2.43509261608471      0.46906527981591
  F           4.60323859280944     -4.35293826711241     -0.24437065662385
