27
Coordinates from ORCA-job NEB E -39.684422158100
  C          -0.26102127565985     -0.72468323917943      0.39784162701526
  C          -1.56903706311012     -0.74769583266598     -0.08931940302865
  C          -0.01644734375313     -0.36807273728122      1.85003813979668
  H           0.39297995509299     -1.50575491112221      0.02280521599107
  C          -1.80581487079838     -1.54460699262587     -1.36547040796738
  C           0.37638927655086      0.92336869223370     -0.63576832773639
  C          -0.77678072528449      1.59750945000063     -1.05817904054973
  C          -1.82429452702423      1.78946260298748     -0.14994037422191
  O          -2.40088802739867      0.17721236037142      0.21181252382147
  O           1.19446023437769      0.46867371823085     -1.62997148824901
  H           0.88530552403649      1.28405978500319      0.25196485159779
  H          -1.02983606765190      1.48097928029559     -2.10408988695951
  H          -2.74006732065686      2.22779641470878     -0.51802592051035
  H          -1.57622427337348      2.08525050355326      0.86126735937663
  C           1.44448737356473     -0.46331150767817      2.27470964637786
  H          -0.59077079092877     -1.07979934436119      2.45129887994950
  H          -0.41152816549378      0.62262773937000      2.07602414421165
  H           1.84185063105911     -1.45211628581627      2.05419331011115
  H           1.52867523951378     -0.29576561643680      3.34591696165966
  H           2.06500955391535      0.27554035080247      1.77241062852466
  F          -3.11314882891466     -1.48850270835317     -1.75983518321322
  H          -1.55217590320557     -2.60171339296898     -1.23313004363645
  H          -1.20649298221251     -1.11262128258172     -2.18076571949556
  C           2.52277186709725      0.17318303766357     -1.26831962509867
  H           3.03646679080998     -0.09763426368305     -2.18873605368524
  H           2.56996074321859     -0.66604072931006     -0.56724178734879
  H           3.01617097622957      1.04265490884319     -0.82149002673256
