27
Coordinates from ORCA-job NEB_product E -39.734381883340
  C           2.56692603034990      0.74898016582935     -1.14385051332346
  C           1.29374239291315      0.47444878910201     -1.93262721162068
  C           2.22055621759368      1.15747529903322      0.29202013227318
  H           3.18511743797554     -0.15412407684615     -1.14436870811442
  C           1.51276206177506     -0.45786438111926     -3.11005318739833
  C           3.38727288988610      1.84510986046004     -1.87275269693359
  C           2.52949319124636      3.03075615443806     -2.21857839059921
  C           2.56256408701431      4.17731946520294     -1.56673082676807
  O           0.22688184915793      0.94875082014665     -1.65469260802983
  O           3.96188778679812      1.24797175044462     -3.02560097688353
  H           4.19931026666128      2.16619355252420     -1.20057886734521
  H           1.85690727087318      2.88053110418951     -3.05168935206884
  H           1.91788356460590      4.99809709950864     -1.82892022753376
  H           3.23007855110715      4.33993397068309     -0.73542572115833
  C           3.40303114691370      1.05172720327511      1.24614637596471
  H           1.41943920108181      0.50531968028542      0.64500287401428
  H           1.82977305408283      2.17601226367624      0.28515287515753
  H           3.79749863650030      0.03791938970996      1.25693939188202
  H           3.08876308831879      1.30653380729523      2.25501726169837
  H           4.20544797487528      1.72823770057014      0.96285904804969
  F           0.39617513988189     -0.56729741412378     -3.89192777344485
  H           1.75500230119665     -1.46314529239928     -2.74607038069811
  H           2.33265049474471     -0.08235753868318     -3.73152267498079
  C           4.91019878678314      2.06662758568637     -3.66629263698206
  H           5.28625121808298      1.49550655940768     -4.51262840357401
  H           5.73956712701496      2.30919578369614     -2.99090297442492
  H           4.46171823256530      3.00014069800704     -4.02232382715781
