19
Coordinates from ORCA-job NEB_product E -32.904664915210
  C           2.92806313670148      0.04305326768176     -0.99673324543634
  C           1.41406073884480     -0.17246484337366     -1.16489861803408
  N           3.26514624894333      0.62179784571878      0.28080843516798
  H           3.45429012100525     -0.91211012082026     -1.10373103926802
  C           1.04346543769730     -1.28246074465950     -2.13318507866642
  C           3.37356839782968      0.97892502748147     -2.13385307123586
  C           2.63199298686793      2.26484032841270     -2.16770683164026
  C           1.96303891873004      2.68823747132442     -3.22496807261762
  O           0.61100468078894      0.48391216221446     -0.56286636494946
  I           5.49700619163239      1.38960158036424     -1.85464292172702
  H           3.30757127330242      0.46780365128613     -3.09497172889369
  H           2.67601985183828      2.85771273384399     -1.26564904919563
  H           1.91787501500644      2.11874922594016     -4.13966844448929
  H           1.42948148038282      3.62202440998984     -3.21784308794780
  H           2.62539289734022      1.37913513735330      0.50126096809523
  H           3.20433859868189     -0.06135298160100      1.02590865434015
  F          -0.29671264312358     -1.31196307031294     -2.37817491995102
  H           1.32064168153014     -2.25286317792702     -1.70191735282290
  H           1.55255498600024     -1.14897790291688     -3.09426823072795
