17
Coordinates from ORCA-job NEB E -38.459819058010
  C          -0.05748742368000     -1.33393091818483      0.63268744544588
  C          -0.91603438804748     -0.66855650400229      1.51605933650566
  Cl          1.59743822841239     -1.49980421564445      1.13737600714753
  H          -0.41512806926790     -2.21213064120493      0.10738341227160
  Cl         -2.63850612943270     -0.94650439590886      1.20198352299695
  C          -0.01906800420898      0.08730529312370     -0.74347507239873
  C           0.40527818175650      1.19448814634008     -0.01023845453796
  C          -0.44686831222533      1.68103136614429      1.01101724450424
  O          -0.60077812982230      0.41346735777678      2.08576865547360
  C           0.84693675685465     -0.43164548473076     -1.86813069917204
  H          -1.07259384210826      0.00657713281654     -0.99696038780282
  H           1.46537890481769      1.39049441604212      0.05469550321607
  H          -1.49611743174509      1.80700864908984      0.75995729210425
  H          -0.05937256040129      2.46346900326276      1.64947701577495
  F           2.16402356743656     -0.38373850388354     -1.58523032868222
  F           0.55621769732951     -1.72212351173002     -2.16134368194748
  H           0.68668095433204      0.15459281069357     -2.79102681089949
