17
Coordinates from ORCA-job NEB_product E -38.506759668810
  C           2.03091208286275      0.49149906032048     -2.32346131014346
  C           0.73524485113593     -0.12926019345725     -2.78296439757449
  Cl          1.75590033440934      0.82363128987725     -0.58123142828219
  H           2.85950360255175     -0.21794372330977     -2.38487090122551
  Cl          0.57743244837277     -1.78776866175028     -2.25891578537366
  C           2.35616283117326      1.80258504557858     -3.04629910820577
  C           3.58520225131617      2.43700032399410     -2.45262052315611
  C           3.60147650229123      3.64699717012205     -1.93049771726227
  O          -0.12441843108254      0.40896531045136     -3.39889794423562
  C           2.58675108195437      1.51507089857767     -4.53836754683644
  H           1.50326620781948      2.48390393907395     -2.97274952865474
  H           4.47913978921588      1.83081204025957     -2.49723597321432
  H           2.71751204305759      4.26132674223101     -1.88824909328092
  H           4.50162041418453      4.07170019723680     -1.52283127052050
  F           2.99803836197608      2.63176114226806     -5.17454357071550
  F           3.57114569331836      0.59658324406645     -4.70224566833543
  H           1.68920993544306      1.14283617446000     -5.05391823298306
