21
Coordinates from ORCA-job NEB E -43.151780983970
  C           0.28566484222673      0.04317969815110      0.94299338155835
  C           0.29554657616653     -1.35499093773602      1.05212729227793
  O           1.43725756920306      0.69938203908587      0.61089065941095
  H          -0.36883128804990      0.58334145307657      1.62755539162009
  I          -1.40615304782249     -2.16006910402625      2.15943502087278
  C          -0.55377074148836      0.14400772146854     -0.97134583983191
  C          -0.74681666465051     -1.16622640790163     -1.40200551957618
  C           0.36539750225392     -2.00698092996382     -1.45190068752660
  O           0.87375668587429     -2.13016886499860      0.27803413157163
  C          -1.69744045837464      1.09890899738394     -0.92735232072385
  H           0.36995228313265      0.61929974492199     -1.29303240479908
  H          -1.73209409540519     -1.60913616691067     -1.31749838874825
  H           1.31271881217780     -1.59324145949702     -1.76908686434289
  H           0.22133158769425     -3.05146910752593     -1.68313482856402
  C           1.91013031214048      1.60912393218406      1.58782922442410
  H           2.74730615365789      2.12943650350333      1.12842892927665
  H           2.25128188833424      1.07828993030104      2.48102466313156
  H           1.13623324761752      2.33110884953062      1.86462284140960
  Br         -2.21869350457880      1.52530427796840     -2.79988005652054
  Br         -3.27410618420739      0.41508191566946     -0.01736088145748
  Br         -1.20867147590209      2.79581791531503     -0.10034374346283
