21
Coordinates from ORCA-job NEB_product E -43.203894733990
  C           0.46287312852247      0.89827544133875     -1.35577748551034
  C           1.12602897928139     -0.43198404926538     -1.01185713373567
  O           1.39905784067710      1.92942726006194     -1.29112485148971
  H          -0.38428329493235      1.07515622085071     -0.67311689952248
  I          -0.10101012969904     -1.70059998278438      0.24767227009281
  C          -0.01709779499460      0.78495207476581     -2.82044941118931
  C          -0.72573037679322     -0.52174655833521     -3.05165702181414
  C          -0.26956842440721     -1.46447259689756     -3.85485448623767
  O           2.19546800941792     -0.78789907682580     -1.35215913127421
  C          -0.91544503193918      1.94926852065463     -3.21694992563584
  H           0.88402503381094      0.83694527405211     -3.44587641137256
  H          -1.65831085060495     -0.65074506812941     -2.51735607853301
  H           0.65471857178463     -1.35636747946708     -4.39853623277148
  H          -0.80552089900060     -2.38644753403239     -3.99471659743438
  C           1.76163466873689      2.31800287256797      0.01697042891735
  H           2.40604006384528      3.18543315464087     -0.10188528377153
  H           2.30789868769547      1.52257867805440      0.53318738259389
  H           0.87798163531587      2.59197046596665      0.60355910123303
  Br         -1.49094777726970      1.69713136663524     -5.07129337616567
  Br         -2.52067803758424      2.04311829368284     -2.11407407745993
  Br         -0.02553400186288      3.67250272246530     -3.12140477891918
