20
Coordinates from ORCA-job P E -32.718387771040
  C          -1.40686489196446      0.49441233588960     -2.32530408193880
  C          -0.04314078607787     -1.56961346414085     -1.13958437425009
  C          -1.40163177184200     -1.84656102059608     -1.70175602984364
  C          -2.06875772318969     -0.85786072213079     -2.27395991758071
  C          -0.85600560876733      0.86128356280683     -0.92610241088798
  C          -0.09191360406121     -0.29998756952058     -0.25816911057177
  H          -1.80818037506636     -2.84083737747805     -1.61735992871341
  H          -3.05614761119201     -0.96666201512579     -2.69172444948867
  C          -2.32789366435150      1.51529670303772     -2.76703328564732
  H           0.31822004681206     -2.40699765917463     -0.54372211981433
  H          -0.58154570453321      0.45845186841176     -3.05278828601090
  H           0.66404475006604     -1.42263471884828     -1.96518322055866
  H          -1.70421740858784      1.13412572625726     -0.29588311951061
  H          -0.58865715370663     -0.56916518112928      0.67725608239983
  H          -0.22655666672085      1.75187580461256     -1.00924278522372
  C           1.33752931224444      0.08466828995473      0.10866988808087
  N          -3.06561058625706      2.31845899436707     -3.10739610264491
  O           1.80079210930767     -0.06464620821144      1.19972051435062
  O           2.07450338841773      0.58736106563948     -0.89607368452984
  H           1.57713394947008      0.65150158537874     -1.72263357761596
