20
Coordinates from ORCA-job R E -32.636231657140
  C          -1.00603647286268     -0.34341232818742     -2.86217385650162
  C          -0.08689325388402     -3.11306168563874     -2.16341765088067
  C          -1.32027858528106     -2.64029692122764     -2.00850910531812
  C          -1.67989215197987     -1.24455427750666     -2.12961227954091
  C          -1.07627222910118      2.12201888898643      0.46592305292142
  C          -0.29246249038630      1.06565470832299      0.62515176746542
  H          -2.12710691609943     -3.30643685523547     -1.73065488301662
  H          -2.56770080715010     -0.92859164357836     -1.59429915339298
  C          -1.34434306537721      1.01375518883054     -2.86701509921530
  H           0.13266280365413     -4.15972780156319     -2.03965311375370
  H          -0.13823638118385     -0.61701496998335     -3.44561087274817
  H           0.74870016257434     -2.46712896332175     -2.37104041254198
  H          -1.80036174298154      2.39285510265503      1.21579551274785
  H          -0.37547896857452      0.42980663251562      1.49518944447898
  H          -1.07084232663540      2.74805935456668     -0.41361593363601
  C           0.71271093557863      0.57967070309998     -0.35621319588360
  N          -1.58993505944640      2.13617338493880     -2.82114609234326
  O           1.13922245862648     -0.54447748441230     -0.33110441801944
  O           1.13811146459362      1.45027671504205     -1.28229766158260
  H           0.68705262591635      2.30431225169674     -1.22749604923869
