19
Coordinates from ORCA-job NEB E -41.189027358880
  C          -0.12022598795732      1.08886422765960     -0.34831007252719
  C          -0.81755431892951      1.05571123402086      0.95034419693530
  O          -0.99145304489318      1.42715958687470     -1.38147711419180
  H           0.75470728374839      1.74873427296852     -0.31347874107302
  C          -0.16398379494977      1.62603282712931      2.06444031174067
  C           0.38345059579596     -0.48322771222665     -0.64835607377807
  C          -0.41049734778830     -1.45276783209465      0.10734613256192
  C          -1.77908132487456     -1.13404696871094      0.18739974941153
  O          -1.79118913914435      0.24431197498096      1.10712483030518
  C           1.87824288604617     -0.65320705307524     -0.48043303710379
  H           0.14687771269028     -0.55803007783757     -1.71891897432250
  H           0.05179359018262     -1.92361653782182      0.96587948509328
  H          -2.41663197911280     -1.77610812647882      0.78002119618249
  H          -2.25109231495713     -0.77354161271385     -0.72308063794499
  H          -0.50000494889645      1.60901249104167     -2.19149663601177
  N           0.31250383348416      2.20000770904510      2.93961352681993
  Br          2.39275579908195     -2.46961991644841     -1.00633169748018
  Br          2.86039265813623      0.57401637177709     -1.65312186869573
  Br          2.46098984233760     -0.34968485808986      1.36283542407872
