19
Coordinates from ORCA-job NEB_reactant E -41.236001821280
  C           2.09740243595763     -0.24189603903882      0.19545511736972
  C           1.51561521111587     -0.79743885191448      1.27362090488111
  O           2.30980144236089     -0.85844612947773     -1.00161295955533
  H           2.42204378664629      0.78609186605580      0.28666193576969
  C           1.37262736543911      0.04091173033230      2.41157608909890
  C           3.31616104191757     -3.62215542861203     -0.74148167304757
  C           2.70574701461846     -3.38169066219176      0.40710759158278
  C           1.25055916929468     -3.04079124695642      0.50440942987683
  O           1.00846089006083     -2.05236883154545      1.47908106633638
  C           4.75937784565608     -3.87050941062404     -0.92658872924143
  H           2.76534273666063     -3.58900001840920     -1.67369464520484
  H           3.23463198345703     -3.38859950058465      1.35150896516012
  H           0.69358093228399     -3.91304870533136      0.86542626808440
  H           0.85573857583053     -2.74237982154610     -0.47265187116143
  H           2.84072178199961     -0.29694772584716     -1.57624341750519
  N           1.26518784677563      0.72543493362187      3.32379753027325
  Br          5.04678821298621     -5.44580188539954     -2.07139295832800
  Br          5.52512649456435     -2.30354149973203     -1.86724079730759
  Br          5.76988523237460     -4.11962277279919      0.71166215291821
