17
Coordinates from ORCA-job NEB_product E -38.190340694340
  C           3.22637113370973      0.96225633757388     -0.82302497498690
  C           1.75330933942490      0.60407708395224     -0.94252655715573
  F           3.78585825665218      0.20556600699363      0.16639371222181
  H           3.75161587463804      0.71302041412053     -1.75629986048402
  C           1.04815227441059      1.21936722500410     -2.17732012653263
  C           3.36926777721609      2.45700831347542     -0.49751988639541
  C           2.77017636362309      2.79835987720705      0.82305034233598
  C           1.86809081888250      3.74929777353397      0.97933192605549
  O           1.14620508793934     -0.06235162656631     -0.16085676239194
  Br          5.30091005175811      2.90119456902909     -0.48301814958513
  H           2.95157236832461      3.05886204357417     -1.30601628006546
  H           3.13297154497869      2.21291132648771      1.65637643297459
  H           1.50615839707803      4.33567632923346      0.15061871934546
  H           1.45149955007863      3.97140502308108      1.94560883684341
  F           0.58580493960132      2.45075218784178     -1.85565447635251
  F           1.90770287575455      1.39060940720574     -3.20510811877299
  H           0.20013334592961      0.60518770825247     -2.51273477705403
