17
Coordinates from ORCA-job NEB_reactant E -38.187055762670
  C           2.03393711017627      0.17293365208879     -0.28844343053863
  C           1.57536424329772      1.17537724516678     -1.03721399222794
  F           2.60352597146227      0.31986086480380      0.92329086275341
  H           2.00007681837136     -0.85923936664944     -0.59434930894682
  C           0.96266860058596      0.83558226576467     -2.38306183693125
  C           4.26812749992320      4.25224246721788      0.06154729148638
  C           3.60837550986009      3.12330357552081      0.24717567045523
  C           2.11167600594128      3.07425681196095      0.34311274826748
  O           1.52336364425305      2.50328532932165     -0.81950523938955
  Br          6.14764583690747      4.32359753686439     -0.06506856600887
  H           3.79833683030643      5.22011613185524     -0.01713162649197
  H           4.13216239034169      2.18099849425658      0.31422784577865
  H           1.69651556102852      4.08411415346970      0.37990380129745
  H           1.80656012364760      2.52439569006943      1.23974654452867
  F          -0.33011873666518      1.22558167575670     -2.43087216404136
  F           1.60033875218463      1.49337628228995     -3.37515638704168
  H           1.00134383837761     -0.24078280975791     -2.60740221294920
