24
Coordinates from ORCA-job NEB E -43.455121425500
  C           0.72297538869994      0.16058245967092     -0.36619700957670
  C          -0.42310116534509      0.68255653766718      0.36739049719559
  C           0.82806531370930      0.79487859599715     -1.77517536392357
  H           1.64737232882128      0.41685543386519      0.16122923085627
  C          -0.27171767298022      1.69452013698504      1.45267714469462
  C           0.58135670828714     -1.39760803019991     -0.52636444957854
  C          -0.73209198020079     -1.58261495512318     -1.19938473608566
  C          -1.88933896210751     -1.00204750136195     -0.48001502338087
  O          -1.66305168443561      0.22361345487252      0.19388877014070
  C           1.65799864373870     -2.01845524200384     -1.26544715809890
  H           0.61425245090283     -1.81966501215594      0.49029770882274
  H          -0.92438593084653     -2.49211679540373     -1.74378429218218
  H          -2.22997231900730     -1.69512704328006      0.30258065001077
  H          -2.73251276321668     -0.83302357648261     -1.15788319174257
  Br          0.06938655308453      2.57548922164259     -1.82575135737515
  Br          2.66331526805420      0.89316693095518     -2.41106424719379
  Br         -0.31796519972755     -0.30226003491171     -3.27508811383124
  C           0.08774790667301      1.02236898266936      2.78601955365802
  H          -1.21742179205153      2.22643934845044      1.56121321230718
  H           0.50547408812121      2.41313395167718      1.18951691434958
  H          -0.68207663912897      0.30981070158233      3.07229465744416
  H           0.16719380767119      1.77540430166965      3.56459998106068
  H           1.03958437837924      0.50015774990473      2.71439085018956
  N           2.49891327290522     -2.54605961668653     -1.82994422776068
