24
Coordinates from ORCA-job NEB E -43.027004227820
  C           0.54626750562623      0.32186619955145     -0.03164059975455
  C          -0.21225143155897      0.12312937591632      1.11722319299527
  C           0.48686457677508      1.60134940362768     -0.81578510410375
  H           1.53441775435517     -0.13013473961973     -0.02891927680449
  C           0.28812642128297     -0.54260533821395      2.26466001082837
  C          -0.62420490199534     -2.11547488556433     -0.98704155878661
  C          -0.88906895250137     -0.78493745113712     -1.12947294950437
  C          -2.00847617175821     -0.17463791578034     -0.32246982242644
  O          -1.56498688009614      0.17967304372321      0.99614838920389
  O           0.24064968095824     -2.74401861767633     -1.77983727932908
  H          -1.10539696031738     -2.68450391679641     -0.20162257225245
  H          -0.59090531415480     -0.31608073300271     -2.05326109488706
  H          -2.82887542718339     -0.88251432387455     -0.17172257980751
  H          -2.40238929278558      0.72024783908702     -0.81304174980240
  C           1.42854659866803      2.61045405739879     -0.14930634853969
  H          -0.52149114533676      2.01382241239811     -0.83098962772112
  H           0.82276637633384      1.43448605786748     -1.84007983191655
  H           1.13176865087284      2.79073224907749      0.88108298011994
  H           1.39728837951190      3.55324893992575     -0.68910770330907
  H           2.45109338728766      2.24140270075498     -0.14979219679975
  Br          1.97292138116585      0.05588243189452      2.90879140275726
  Br         -0.96815985420170     -0.84796441636649      3.64466178012398
  Br          0.94541409805267     -2.81036093254621      1.60601168910549
  H           0.47008152099916     -3.61306144064464     -1.42448914938932
