24
Coordinates from ORCA-job NEB_reactant E -43.056621624990
  C           1.78814759287535     -0.25213331843662      0.05520159492554
  C           1.54681978297672     -1.56071562876389      0.04224115553865
  C           1.88786475184288      0.59189997219953     -1.16978583612137
  H           1.95552310260617      0.25257782948622      0.99659064429570
  C           1.45850413616123     -2.36807794484966      1.31026419266827
  C          -0.34262000465484     -4.52044801051381     -2.83508188399372
  C           0.03355309816250     -3.24806115088590     -2.79373143886980
  C           0.01397288428527     -2.44219975654097     -1.54120009710566
  O           1.37511435842148     -2.28700416952145     -1.10022380580084
  O          -0.33351641979821     -5.31296067835068     -3.92070157619624
  H          -0.72692471688619     -5.04147035984794     -1.96955132854352
  H           0.43419021783355     -2.75880626074650     -3.67062965006176
  H          -0.57699662536265     -2.95573591613021     -0.77368970973158
  H          -0.41543450360654     -1.44627793307771     -1.71366525651971
  C           3.17531058151303      1.41346405382019     -1.15955186723835
  H           1.03033916350985      1.27179028102465     -1.19649057378245
  H           1.85522501932293     -0.04313270265048     -2.05620812845856
  H           3.21095596243225      2.05912225871757     -0.28510750295575
  H           3.22984799882775      2.03375282258164     -2.05033203743730
  H           4.04261761824295      0.75798153208084     -1.14036882494949
  Br          2.82303370917669     -1.87782512944961      2.60951096456982
  Br         -0.30258554559702     -2.07994012902021      2.18434483922594
  Br          1.64037056921741     -4.25773730343795      0.92781633561755
  H           0.03728726849741     -4.84076235768707     -4.67795020907537
