28
Coordinates from ORCA-job TS E -34.527654355700
  C           0.01428256539752     -0.27388174998990     -0.29066503805059
  C           1.39651139500110     -2.51441988709561      0.86752086707358
  C           0.04258815240264     -2.43391522056516      0.82956641850726
  C          -0.63782724690908     -1.35214892033486      0.23538622409702
  C           0.99136668130477      0.35748577105501      1.63917391483536
  C           1.85166498132114     -0.60086220612737      2.06452210348375
  H          -0.54434525417099     -3.12036542523376      1.42585540429147
  H          -1.70836612903904     -1.30793159808717      0.38130634606976
  C          -0.71561129086220      0.88710830793281     -0.93450819613134
  H           1.88027151571736     -3.29821208099497      1.42785983344735
  H           1.02398534745391     -0.40537689350099     -0.64879498869601
  H           2.00726399342892     -2.04525411956609      0.11852214078092
  H           0.04090152898786      0.45160307653151      2.13073268688796
  H           1.66712539731841     -1.23872617794473      2.91042980699993
  H           1.35371412747757      1.20351106427535      1.08761497379578
  Cl          3.53673660710339     -0.48950235431397      1.64897887668939
  C          -1.75484342047580      1.51941315423332     -0.00482493726860
  C           0.27478229491350      1.96463979322812     -1.38638759147348
  C          -1.42653325175711      0.33467113815059     -2.18255613876611
  H          -1.27585753825845      1.96779887429848      0.86167893816836
  H          -2.47439735604225      0.78254472113596      0.34101184492752
  H          -2.29809546475127      2.29928852683464     -0.53433954053828
  H           0.75607895926614      2.44196325562455     -0.53629272173809
  H          -0.24379496822375      2.73680645482098     -1.95079019276974
  H           1.04521907949686      1.53717932099016     -2.02453774572409
  H          -2.16657703848398     -0.41128674547646     -1.90538604711924
  H          -0.70813657002807     -0.13062738709502     -2.85374866942009
  H          -1.92810709758911      1.13849730721459     -2.71732857235974
