18
Coordinates from ORCA-job NEB E -34.188432350250
  C          -0.28714952673297     -2.26133943265339     -0.89182249610178
  C          -0.15193685083056     -1.15972222728229     -0.17420809381062
  C          -0.66146003616392     -3.58488527786081     -0.26938076008455
  H           0.34192805443131     -2.36465044953580     -1.76764336813109
  Br          1.91735519837685     -1.06690776848857      1.11672885293109
  C           0.15049555110642      3.25459778493358      0.07301621968360
  C           0.41490264281106      1.95193946884221      0.14397859099775
  C          -0.43291826707630      0.98150313422133      0.89607318794022
  O          -0.80237530522322     -0.12199926241701      0.05390304957365
  C           0.98392730717502      4.15739841405705     -0.61856189674435
  H          -0.71486084363803      3.69600902443431      0.55122578882547
  H           1.28891230510565      1.53397973942942     -0.33635352569775
  H          -1.38161564894838      1.42659275537903      1.20530975433204
  H           0.12268433984547      0.59989699040377      1.76329270262283
  F          -1.34294131807432     -4.33857615885499     -1.18613451942452
  H          -1.32221730090887     -3.44732615290078      0.59101029585052
  H           0.22535400560633     -4.16502715573281      0.01781972929562
  N           1.65191569313848      4.90851657402572     -1.16825351205813
