18
Coordinates from ORCA-job NEB_product E -34.281893286360
  C           2.24101796962064      2.04458174640359      0.09334847834856
  C           1.26420727130925      1.66060987211720     -0.98621508194527
  C           2.78256949465297      0.87381257424568      0.91123565170090
  H           3.09111251149451      2.50273427090063     -0.43179254106708
  Br         -0.08793082765684      0.34914640860184     -0.44853967833455
  C           1.58656562905600      3.13885187248821      0.98251388005947
  C           0.44558457497449      2.64715286084621      1.83665256558741
  C          -0.76651032075619      3.16570980694073      1.78679485155558
  O           1.20790461526138      2.10601143427194     -2.07797997002374
  C           2.60091426945433      3.69278811874328      1.85744250083509
  H           1.23355158367997      3.94890594738765      0.33084765210945
  H           0.68618567380048      1.85653245457523      2.53210483585496
  H          -1.02301536589237      3.96274171324658      1.10763037671001
  H          -1.55735382912121      2.80404076104477      2.41936335498178
  F           3.58967768809882      0.10676237908607      0.11517855358275
  H           1.99323247395288      0.21750197537548      1.28997862442402
  H           3.40262997171014      1.24215618188434      1.73616026354288
  N           3.38855661636074      4.12115962184055      2.56447568207776
