18
Coordinates from ORCA-job NEB_reactant E -34.267025927900
  C           1.95539250600172      0.09249329724617      0.65504637194016
  C           1.95727316185903      1.14359109490918      1.46499421277552
  C           0.69788665192909     -0.51790258971702      0.12619464062017
  H           2.88151162011793     -0.35950809687812      0.34054627901301
  Br          3.64482215844695      1.83708512471075      2.07803963981616
  C           1.90020734944968      4.85462724190655      0.80537113820185
  C           1.01404017015997      3.86998212752608      0.93483595778480
  C           0.81569033234998      3.09670724285149      2.19986830511756
  O           0.84795713817799      1.69082307485314      1.97792294837173
  C           2.06029738319916      5.56835293453327     -0.39966935358932
  H           2.54079338936657      5.16319436352122      1.62182963712484
  H           0.39874546202997      3.56448414124917      0.09834874706182
  H          -0.18645053941821      3.27723503345754      2.60230878906397
  H           1.55958423478662      3.37917529314082      2.95553380627123
  F           0.81410890633246     -0.74765682383333     -1.22321041781779
  H          -0.16353252402257      0.14007739543352      0.27466577702558
  H           0.50787415996709     -1.49391793330372      0.59012395527078
  N           2.19409843926658      6.15565707839327     -1.37445043405206
