26
Coordinates from ORCA-job NEB E -48.219829374070
  C          -0.07517453728842     -1.12814352281793     -0.87731574917268
  C          -0.51805409734806      0.02349743858222     -1.37728401578592
  C          -0.27793984216056     -1.70254247630600      0.48808322852464
  H           0.54319049128388     -1.72273596169526     -1.53408007419823
  C          -0.11400174056687      0.45144120076440     -2.77382976012082
  C           0.26396384773186      2.01393693219073      1.38604925239732
  C          -0.81818947686962      1.07962230458191      1.51077512128187
  C          -1.84605971656175      0.95089941807378      0.42223306623349
  O          -1.31077905151118      1.02081597183712     -0.88523110850600
  C           1.61327825022241      1.68710492825333      0.86253555424118
  H           0.06859320600975      3.07634502506494      1.48606443980487
  H          -1.16024570734881      0.78565322569959      2.49491259226186
  H          -2.54287833728461      1.80430534861350      0.44386434800304
  H          -2.43020930210242      0.03227770162372      0.55306518161744
  C           0.79841106170232     -2.72729283322533      0.81953775723410
  H          -1.26385795945227     -2.17245209178787      0.55592794092149
  H          -0.24295046882046     -0.88273005936058      1.22422341587193
  H           0.78892510797899     -3.54296572185489      0.09964276198867
  H           0.63078226238388     -3.14001805985127      1.81113086592149
  H           1.77712309569411     -2.25615281618565      0.80424099769653
  F          -1.15531703393524      0.85777444030764     -3.50953148924934
  F           0.75023593939747      1.48583651367352     -2.73657977168508
  F           0.49420967485652     -0.51405369501409     -3.47413637351621
  F           1.98783138202118      0.39431652440443      1.14115775077602
  H           2.37779235315638      2.34073098575174      1.30160717085251
  H           1.66132059881152      1.78452927867631     -0.23706310339420
