26
Coordinates from ORCA-job NEB_product E -48.344993811900
  C           2.50558353781651      1.23131058213887      0.55521262476809
  C           1.47069814590207      1.49823622455560     -0.49951587084175
  C           2.20746100387307     -0.11877538258550      1.22622705958884
  H           3.49474170555098      1.18577271276467      0.08945996199139
  C           2.04845800529268      2.22492303393288     -1.75674178614477
  C           2.45649245785476      2.48994076625401      1.49384827360571
  C           1.76323601963300      2.21473608219361      2.79677788940578
  C           0.53914858076720      2.62271835702695      3.07223593417308
  O           0.30761944797549      1.22456130392945     -0.45728897491804
  C           3.85702582527300      3.06063670574609      1.73321518065418
  H           1.90316169762016      3.28390880415825      0.97754243292203
  H           2.34368504739501      1.66795212487037      3.52577712273041
  H          -0.05483731567933      3.16715913516449      2.35642914430775
  H           0.07505850657455      2.41960416933057      4.02171976173149
  C           3.41248445030195     -0.69709904377786      1.95463062648545
  H           1.90412803400917     -0.81743409990471      0.44254101145969
  H           1.36262936791830     -0.00694078695955      1.90606156268804
  H           4.23911356205766     -0.84695084643862      1.26392700263418
  H           3.15182395848768     -1.65885301983035      2.38896515721334
  H           3.75310686573553     -0.04224217606183      2.74951426386915
  F           1.10438561204380      2.64489216680588     -2.59291196039198
  F           2.79317605149452      3.29585295381484     -1.42355806907987
  F           2.85816083134040      1.39683897310504     -2.43587301361518
  F           4.67291936183369      2.15749999200856      2.36230356750135
  H           3.79925642505557      3.93892383110391      2.38460459452242
  H           4.34408281387258      3.32792743665438      0.79019650273924
