20
Coordinates from ORCA-job NEB_product E -39.405464515360
  C           2.05173021752865      0.07978372981551     -2.49896425839463
  C           0.82101600279319     -0.73611297928244     -2.76767776886507
  Br          1.65653059735667      0.80315369167196     -0.70539482494576
  H           2.95432754742611     -0.52479272881946     -2.38856034215074
  C           0.93485141881419     -2.22828384875503     -2.47241132128768
  C           2.24738183224191      1.21147689544927     -3.50971597137301
  C           3.38579480204905      2.08691236095335     -3.07265434558231
  C           3.24953199717776      3.34795806134138     -2.71167105063473
  O          -0.20064308853692     -0.30029490379590     -3.21214673337353
  C           2.53262425731712      0.61354506291159     -4.88934012230080
  H           1.32304282934827      1.79691753042740     -3.55168151022510
  H           4.35662898113698      1.60866750643240     -3.06678610904354
  H           2.28973999007654      3.83791366841058     -2.70886108641867
  H           4.09074513683603      3.94297352379098     -2.40204516556621
  Br          1.83629277406602     -2.66895545798970     -0.82007990713316
  Br         -0.81471237728913     -3.04725190110502     -2.51259380348349
  Br          2.00762184024075     -2.90667336108410     -3.97559726784208
  H           3.40816633035208     -0.03273495625958     -4.86051040698960
  H           2.72201311006762      1.41740271422191     -5.59583591329399
  H           1.68371580099711      0.03729539166493     -5.25027209109591
