21
Coordinates from ORCA-job P E -36.645437799010
  C          -1.20534365549894      0.53770098317412     -2.29078762817059
  C          -0.52382852458930     -1.76846798920521     -0.54090317092008
  C          -1.22934941321294     -1.90351974109422     -1.85136477664989
  C          -1.54657279000690     -0.88628072830987     -2.63192872135844
  C          -0.96508262142042      0.67941154223751     -0.78533324735387
  C           0.05747114740941     -0.36721407521166     -0.33593036834981
  H          -1.48877112384713     -2.91127000622504     -2.14302057954672
  H          -2.04670135502559     -1.04735368973535     -3.57453937656041
  C          -2.29982280308984      1.47914937595045     -2.77625822458901
  H          -1.22978570648089     -1.99108957370601      0.26504995746724
  H          -0.28009086065882      0.80856068243119     -2.81421799697354
  H           0.27577775577386     -2.51117664567903     -0.48301313392212
  H          -1.89903102665818      0.52279733434336     -0.24498665638325
  H           0.24627790065849     -0.22217495448376      0.74569220035200
  H          -0.59585713387344      1.68015413792160     -0.55820288755672
  N           1.26794483848316     -0.21654475724412     -1.13015509621717
  Cl         -3.87179399071851      1.04264025907225     -2.07054046444229
  Cl         -1.94569145233710      3.16784724874042     -2.34280432667226
  Cl         -2.45458044901864      1.41392628256961     -4.54983830974687
  H           1.67382478467829      0.70136447896182     -0.98392282642728
  H           1.95828647943344     -0.90947016450806     -0.86471436597890
