21
Coordinates from ORCA-job R E -36.559466619230
  C          -1.27721187720502     -0.02885541343125     -2.89241432584240
  C          -0.24293762120662     -2.61816147455012     -1.75997031092022
  C          -1.51762048396863     -2.27380824160357     -1.89899848929211
  C          -1.99622284802678     -0.95111152515839     -2.25366044915847
  C          -1.08924645987928      1.08808295575230      0.51260958209178
  C          -0.06544092209121      0.27298585498081      0.30447590596982
  H          -2.29513898829662     -3.00463335245309     -1.71878520695924
  H          -3.02110373454668     -0.73760821051861     -1.98302527615807
  C          -1.77391207984447      1.30755643805329     -3.28884315612445
  H           0.04295288500191     -3.62084724726276     -1.49231492683627
  H          -0.26389005242675     -0.22758075835642     -3.20541031150743
  H           0.55477592431402     -1.90806958994432     -1.88393849067494
  H          -1.91502929531684      0.80209542149518      1.13562632707295
  H          -0.02652903807918     -0.70539576941810      0.76442385880172
  H          -1.13424983658537      2.06281274504320      0.05811467422708
  N           0.98037729301117      0.51749161045113     -0.57136814965242
  Cl         -3.25264641524844      1.80509991388500     -2.45840470864552
  Cl         -0.52991456916288      2.54627005470571     -2.98896710265394
  Cl         -2.10936889323899      1.30859173822531     -5.06115311463637
  H           1.03782378585452      1.47800199962362     -0.87953137506991
  H           1.87452322694212      0.14107285048107     -0.29476495403157
