22
Coordinates from ORCA-job NEB E -32.732391199440
  C           0.49393623651302     -0.71228153573647      0.95683104595300
  C          -0.77495788186085     -0.47213722337544      0.37794420753070
  N           0.76728392872658     -0.35667036417500      2.28483492321904
  H           1.05449455026165     -1.57607660236464      0.61485999572450
  C          -1.25532902617976     -1.25994606429430     -0.82583506678864
  C           1.41975839726338      0.78550134747923      0.03902622109282
  C           0.70238128589339      1.89616287248496      0.48252415062139
  C          -0.63090430788973      2.03071548675600      0.08054540415948
  O          -1.40482648348097      0.58719404231643      0.74149106118537
  F           2.67931512268189      0.62255987847878      0.50096224784249
  H           1.36790756400452      0.45620626374294     -0.99188247893719
  H           1.02150256602682      2.33977102147837      1.41376409408009
  H          -0.87974225934168      1.83988432357151     -0.95490521747884
  H          -1.22131196770398      2.81207190137944      0.53482129332159
  H           0.01356722429684      0.17470538974483      2.69943021094699
  H           1.08497730563763     -1.11415604199880      2.86696851288210
  C          -0.36578430926408     -1.21967543148427     -2.06871893564538
  H          -2.24614498776795     -0.87834876883825     -1.08007115259574
  H          -1.36880568541499     -2.30295083372740     -0.51567641121285
  H          -0.28252794309036     -0.20812014901235     -2.45915675214565
  H          -0.80395934896079     -1.84334863782463     -2.84510615690805
  H           0.62917001964940     -1.60106087460094     -1.85265119684726
