22
Coordinates from ORCA-job NEB_product E -32.771591951450
  C           2.79003232104030      0.51330635591087     -0.92077059552590
  C           1.35219942865934      0.31264153746824     -1.41810597460514
  N           2.84716129576799      0.62712919716079      0.52487980376014
  H           3.42568632451597     -0.32305770982620     -1.22716677376444
  C           1.13508637183164     -0.72526761458381     -2.49518638368708
  C           3.36357173919064      1.79778961938746     -1.57793281485271
  C           2.92975538612908      3.04072389196706     -0.86762788181276
  C           1.91078505456430      3.78392235539380     -1.25394293299803
  O           0.44174241885026      0.92099427570501     -0.91109052169533
  F           4.74238749048986      1.70733251336520     -1.56309640817153
  H           3.08009065476194      1.82906526095227     -2.63744839290887
  H           3.51383189671977      3.27740048537242      0.00921336311683
  H           1.32633942673708      3.54422820914172     -2.12697488696497
  H           1.60894449750694      4.65686118054374     -0.70228497433123
  H           2.15387457762865      1.30230023633618      0.83510970946135
  H           2.63083950196180     -0.26365725413624      0.95825000171493
  C           1.94510734708120     -0.48090549421998     -3.76678387146798
  H           0.06930151915685     -0.74966975712901     -2.73146221747438
  H           1.41412002019183     -1.69402643840532     -2.07064197378351
  H           1.67553217238947      0.47365591898292     -4.21269042990679
  H           1.72993105052956     -1.26439418093880     -4.48950251535790
  H           3.01347950429553     -0.48747258844830     -3.56764332874471
