32
Coordinates from ORCA-job P E -37.809809817960
  C          -1.50937827734939      0.22050205350648     -2.31376549254118
  C          -0.45202870611655     -1.97502040854624     -0.98027709576624
  C          -1.91326486560281     -1.94419646382928     -1.28989744232373
  C          -2.41827540095644     -0.91827112289531     -1.95626578887769
  C          -0.75207828719838      0.57603972360801     -1.02235346510088
  C           0.07118892534523     -0.60439790063410     -0.48793008265811
  H          -2.51583213387206     -2.78470037412269     -0.98018907015281
  H          -3.46587086698194     -0.87319179272921     -2.20498186441478
  C          -2.22257141980166      1.41536493695637     -2.98735211754381
  H          -0.22506687991559     -2.75270312773854     -0.24998613991666
  H          -0.75915934330432     -0.14864549340329     -3.02547745600185
  H           0.09395469375910     -2.20577803971838     -1.90212078766025
  H          -1.46980973535864      0.88402005708884     -0.26240724787737
  H           0.04091785961602     -0.59156570824907      0.61501597144565
  H          -0.05048637405890      1.38920818136594     -1.19792710741329
  O           1.41219176740801     -0.38478345631459     -0.89829985508666
  C          -3.31039529744343      2.01241970438211     -2.09150875951252
  C          -1.20732738165501      2.51195580376125     -3.33007697694945
  C          -2.85198014569102      0.93380787654704     -4.30065490875250
  H          -2.87975994892651      2.43401495070448     -1.18695155668322
  H          -4.04341044526559      1.26304095889551     -1.80509133907002
  H          -3.82903922277862      2.80929400950749     -2.62064208832764
  H          -0.84078747809790      3.00699587414287     -2.43509015241955
  H          -1.67444451177681      3.26649255600577     -3.95978227717965
  H          -0.35825347176368      2.09645379343207     -3.86804784615316
  H          -3.59693162231824      0.16221726021258     -4.12829004864127
  H          -2.08843794126759      0.52707173328340     -4.96036741393586
  H          -3.33786694864949      1.76258922505622     -4.81137103966748
  C           2.36026485518980     -1.20611006322758     -0.27190585428880
  H           3.33738007804555     -0.84044079156380     -0.58341146035400
  H           2.26015717254909     -2.25662597486708     -0.56841744471576
  H           2.28010135423776     -1.14069798061728      0.82118420854056
