32
Coordinates from ORCA-job R E -37.728382560210
  C          -1.71488621960714     -0.30648520884167     -2.76058672011070
  C          -0.79090479638782     -3.05956425645485     -1.89863214908746
  C          -1.66881112518813     -2.28355152146782     -1.26972415417165
  C          -2.08561540736605     -0.94506583504679     -1.65249953222840
  C          -0.69556864972988      1.60369909277481      0.81053679425270
  C           0.02561958868699      0.57864304677416      0.38630881128191
  H          -2.13133511347503     -2.65809034107888     -0.36370154860659
  H          -2.75430793965228     -0.46575565747841     -0.95304880811326
  C          -2.10949079781861      1.07899437173560     -3.18758435091340
  H          -0.54827922970861     -4.04439108971990     -1.53861570767067
  H          -1.05106388893412     -0.79641481587687     -3.46158200088660
  H          -0.29360712949864     -2.75280801143859     -2.80335545859688
  H          -1.41197712974305      1.48437058701543      1.59965415191047
  H          -0.06886215533076     -0.41023086761504      0.82337124877770
  H          -0.59212903762412      2.57834681465948      0.36981573957172
  O           0.91634260063191      0.69374454038286     -0.63140850672040
  C          -3.07189791490228      1.75648972978059     -2.21363887515851
  C          -0.82649497505124      1.91402178139852     -3.30421494896409
  C          -2.77617824132938      0.98204585682750     -4.56791106938506
  H          -2.63374592102758      1.83438182419391     -1.22169517287689
  H          -4.00261236727746      1.19743568663577     -2.14234918485180
  H          -3.30348515995370      2.75930303205306     -2.56611677603964
  H          -0.29979446499946      1.93174396956551     -2.35390773071495
  H          -1.06400963209835      2.93521662910574     -3.59444668829350
  H          -0.16239424628873      1.49135669217436     -4.05548009108080
  H          -3.68341457537766      0.38433206523216     -4.50928555025344
  H          -2.10618956437645      0.51940718436951     -5.28932846468521
  H          -3.03792015297435      1.97376405834710     -4.93034976094518
  C           1.72084600889175     -0.43334326021476     -0.87656070004746
  H           2.44357435616163     -0.58605689441382     -0.06699722702360
  H           2.25820404618672     -0.23310141716820     -1.80233998659836
  H           1.12086923516192     -1.34194778621045     -0.99641558177001
