32
Coordinates from ORCA-job TS E -37.707528031810
  C          -0.49919137418346     -0.03881989511816     -0.56769756178215
  C           0.69467753065952     -2.43702659401901      0.48046075084847
  C          -0.64814370983145     -2.25440006439924      0.41602129410060
  C          -1.24318782798246     -1.10450707964147     -0.13372312387839
  C           0.43831603909858      0.45352333317448      1.34749458142880
  C           1.29892311898688     -0.52819919807650      1.74039013867330
  H          -1.29452130024949     -2.94168180455061      0.94750857634723
  H          -2.31133166074614     -0.99513442253707     -0.00676834236433
  C          -1.14354010004065      1.19232084609578     -1.17749409524374
  H           1.09036356048253     -3.29694467836028      0.99879116675062
  H           0.49837268416030     -0.22756911515747     -0.93480377568573
  H           1.36704542481679     -1.95686616422446     -0.20649060175769
  H          -0.49635435021452      0.55402920954892      1.86396305087154
  H           1.07282876927274     -1.21107016064191      2.54655883260326
  H           0.84687297609983      1.32265207599211      0.86992675779349
  O           2.61198971773316     -0.44758614216774      1.35335998253038
  C          -2.13525523050511      1.86927194589889     -0.22771043310873
  C          -0.07894685043337      2.20898473120979     -1.60060700723501
  C          -1.89231041148627      0.73461905287157     -2.44151550038738
  H          -1.62191686429668      2.27519148005389      0.63978653862434
  H          -2.89028419101866      1.16752888432317      0.11569104545751
  H          -2.63979804164118      2.68677359970062     -0.73901421100322
  H           0.45135264033256      2.60981067076231     -0.74047014065629
  H          -0.54362746708723      3.04245135711887     -2.12381140238279
  H           0.64679670822015      1.74985439611660     -2.26846931125066
  H          -2.69328334844173      0.04595332796985     -2.18701313555319
  H          -1.21175534633697      0.22851390746415     -3.12264088454738
  H          -2.32287035669963      1.59110403468188     -2.95662081591824
  C           3.48029713838403     -1.39256063970084      1.92195336636140
  H           4.48127733804660     -1.13857537262045      1.57685704436480
  H           3.23345787913876     -2.40938226291157      1.59938122689542
  H           3.45374690576257     -1.35225925885612      3.01670598910376
