18
Coordinates from ORCA-job NEB E -28.923996324320
  C           0.21552861520206      0.94449031280575     -0.71823702101117
  C          -0.96385910194424      0.67093805782438      0.00280211022818
  N           0.45559186709559      0.36414093349116     -1.96942778523328
  H           0.67444469092744      1.91821988975592     -0.58644692780868
  N          -1.23110370760109      1.41518197517210      1.15553632035508
  C           1.33296834056358     -0.25972342144559      0.46687419243835
  C           0.73870611008061     -1.50020776936867      0.29465940799339
  C          -0.58162010490075     -1.64755761644154      0.77341793040026
  O          -1.50067950410969     -0.49783437224261     -0.09611665245022
  I           3.29833793755128      0.02816848678821     -0.27638640609967
  H           1.18840866398047      0.28388077737176      1.39062847703693
  H           1.06587598122969     -2.12631461302227     -0.52149586302117
  H          -0.78944436666775     -1.27611184568611      1.77148676153493
  H          -1.09960398545861     -2.56638638189902      0.53619352324921
  H           0.58802395878049      1.02109456236545     -2.72235130020051
  H          -0.21943216302392     -0.35486850663663     -2.19316443941647
  H          -2.10448482732811      1.17582452760574      1.59995566035794
  H          -1.06765840437706      2.40706500356199      1.09207201164690
