18
Coordinates from ORCA-job NEB_reactant E -28.946048859930
  C           1.47764565743978     -0.08252982869523     -0.12709019053303
  C           1.76700764600746     -0.27616361573901      1.16319177857168
  N           1.05574140611182     -1.10225711703497     -0.99272014998325
  H           1.63793174480930      0.88106446611442     -0.58386492916293
  N           2.37521754844165      0.68599173488112      1.99415646424497
  C           4.19569878295213     -2.66621250165788      3.62724688271463
  C           3.77048260702142     -1.96634228590046      2.59569740970958
  C           2.62556051455664     -2.40766125216589      1.73193575761428
  O           1.53451049315785     -1.49675860250554      1.77697857775978
  I           5.78919267004652     -2.04846032338704      4.85715232440929
  H           3.78165152652025     -3.61632413371307      3.91997986683226
  H           4.19900807618941     -1.00821895035757      2.33918178799809
  H           2.21770476555355     -3.36100824636819      2.07882930202113
  H           2.97652684124950     -2.51417732078611      0.69545145210954
  H           0.38585973848170     -0.78565839052739     -1.68042204538010
  H           0.70025141927668     -1.90024408000121     -0.48014718218960
  H           2.07008550915422      0.59279880103799      2.95515068362246
  H           2.24592305303013      1.63046164680603      1.65899220964122
