20
Coordinates from ORCA-job NEB E -40.477152835670
  C           0.20026140160065      0.98566052800524     -0.42772412311922
  C           0.18687275460938      1.52501487364656      0.87139606077253
  O           1.36845928202682      0.61564219203610     -0.97642751899404
  H          -0.57179689277216      1.32043646304689     -1.11778929485004
  Cl         -1.36266372155671      2.31026790433590      1.24793737276618
  C          -0.53566319650941     -0.90096226687965      0.23161498974435
  C          -0.61592853337294     -0.88763334277438      1.62029522981399
  C           0.53574166545054     -0.59803114220510      2.34428087826784
  O           0.87564427278853      1.13331239478686      1.82472302845470
  N          -1.73767588578205     -1.02377699510282     -0.54431079431972
  H           0.32372845556255     -1.34239262305360     -0.25654841771005
  H          -1.59055065045804     -0.72600361646444      2.06219946865712
  H           1.48876551413412     -0.94852385108910      1.97576934463965
  H           0.47159361576205     -0.47583075184249      3.41379983165277
  C           1.33279800378700      0.33753490318040     -2.36914051450448
  H           2.33605615582881      0.01437219776574     -2.63667499943681
  H           1.07319959626810      1.23569176120883     -2.93536562770644
  H           0.61311459516641     -0.45278298239786     -2.59876105029332
  O          -2.80303357660358     -0.84970093222047     -0.00268949545550
  O          -1.58892285593006     -1.27229471398261     -1.72658436837950
