20
Coordinates from ORCA-job NEB_product E -40.524397461050
  C           0.61607508088005     -1.51628396293193     -0.13344135943433
  C           1.40257392993123     -0.59954386946270      0.78992760013825
  O           1.42905810365064     -2.03098503153987     -1.15114651055103
  H          -0.24964841422647     -0.97105983571657     -0.54511612279190
  Cl          0.34720987851700      0.46950873077792      1.71393997421737
  C           0.11528859634285     -2.73030150078172      0.67084302332372
  C          -0.78207802474243     -2.38307531156802      1.81933877115539
  C          -0.55806794718305     -2.77398955103269      3.05986313081495
  O           2.57545397013130     -0.55629122302230      0.92492371639303
  N          -0.70105558313775     -3.57160481547501     -0.27025669066099
  H           0.96648576580449     -3.34206864492536      0.98205802174588
  H          -1.66009536381112     -1.81003228533493      1.55502637447545
  H           0.31011528580747     -3.35272426303696      3.32778122584839
  H          -1.23231716090982     -2.51947103645686      3.85820015553807
  C           1.75522925788109     -1.10629604320582     -2.16766082277287
  H           2.32391151399030     -1.66808014919966     -2.90441317909344
  H           2.36628775265985     -0.28508933168835     -1.78303153573974
  H           0.84864064095107     -0.70256621566255     -2.63148896222611
  O          -1.51511010717970     -2.99915406077451     -0.94493671542891
  O          -0.50675717535699     -4.75459159896212     -0.23671009495117
