23
Coordinates from ORCA-job NEB_product E -45.028679853800
  C           2.26906387767554      1.40238757368197      1.37221765541589
  C           2.80729348707138      1.47470912932725     -0.03706588717008
  C           1.13038471535813      0.38139441445527      1.42137240778724
  H           3.03948590759515      1.02842742447901      2.05154093593717
  Cl          4.53523840854209      1.13398831523700     -0.10993695475710
  C           1.78213740292777      2.79243102950983      1.86971412116509
  C           0.59906503807983      3.28255281383404      1.08527696964995
  C          -0.56598652539910      3.57074867394607      1.63320886265888
  O           2.20855477454093      1.73104769920104     -1.02390577303411
  C           2.91504769981874      3.82883952024603      1.80745383159639
  H           1.48380884674123      2.66408245971588      2.91634206748269
  H           0.75730129921643      3.40726707744851      0.02401414520327
  H          -1.39008314530733      3.93831864543435      1.04794922762967
  H          -0.74562794067393      3.44728433712914      2.68903796609060
  F           0.56350465696653      0.34668965010787      2.63587476810962
  F           0.15361474743041      0.59095071371432      0.54359375980432
  F           1.59532670177077     -0.85827730134269      1.19004236209177
  C           4.08787998923188      3.50750907922997      2.72646492670454
  H           2.48712070076216      4.78972882303818      2.10060199395807
  H           3.26565640249074      3.92584765507698      0.77820730325094
  H           3.74010012410745      3.32281529127302      3.74046573985978
  H           4.77515171322013      4.34912489165824      2.75151505315001
  H           4.64046111783307      2.63813208359872      2.38091451741540
