23
Coordinates from ORCA-job NEB_reactant E -45.008052636830
  C           2.00865692081394      0.34841892469551      0.10334184113139
  C           1.63981036793825      1.29233161416008     -0.77204720702813
  C           1.37748494987159      0.01606035246878      1.40841470777770
  H           2.81751665958538     -0.31282669677266     -0.15794805686773
  Cl          2.47517308666530      1.31388147253761     -2.29034269018799
  C           1.78599326404373      3.87260276943065      2.25888868317363
  C           1.51308192656809      3.72835719491838      0.97333306264537
  C           0.35568088283943      2.94439617722191      0.43445375230401
  O           0.71645067930657      2.23535449482241     -0.76163428209435
  C           2.93667833013701      4.65630351197439      2.79703545173452
  H           1.16543771168144      3.38959611585186      3.00129674797996
  H           2.12575559702213      4.20205601772751      0.21756332407229
  H          -0.43328113818529      3.61737049326730      0.08263668748377
  H          -0.06788942501248      2.27982979290820      1.18935761260305
  F           1.68345618729596      0.86347648170707      2.41404264742085
  F           0.03036250268084     -0.02252192733073      1.36975867162753
  F           1.77227481671334     -1.19462536959100      1.82318225184308
  C           3.86794780751901      3.75349003571124      3.60619869509398
  H           2.55548086754255      5.44849427437380      3.44707882043493
  H           3.48856293958345      5.12197002567363      1.97887285668841
  H           3.32868771503372      3.29099157969647      4.42893428379032
  H           4.69611449033611      4.32909429981530      4.01198365874462
  H           4.26796286001992      2.96389836473227      2.97499847962880
