67
Coordinates from ORCA-job A2R E -89.688230432950
  Ru         -0.57074986498682      2.29292867255483     -0.19341413426499
  H          -0.77500935247344      0.88623122477022     -0.81133102507924
  N           0.74259555473833      1.39771040494017      1.14941317358094
  C           1.95106307181876      0.96572619119011      0.74579469679264
  C           0.41625526750349      1.25275738854390      2.44650478519369
  C           2.86366507890743      0.40403600922407      1.62643869973544
  C           1.28245153896120      0.68809322819060      3.36912869367611
  C           2.53170011781157      0.25547466758465      2.96094672379271
  H           3.82298839900601      0.07693040994098      1.25530043476920
  H           0.97235820082175      0.58602225315453      4.39681780907313
  H           3.21941520288573     -0.19026325649289      3.66081096190029
  P           1.33933918515380      2.49353583054657     -1.44152420538863
  C           1.39294943916657      2.07289635300928     -3.29359265104277
  C           2.50693553829585      3.96711072968990     -1.10959474756203
  P          -2.04052780580414      1.94264889450227      1.44415116207264
  H          -2.92627441362540      2.87241706887870      1.99567801469937
  H          -2.92470454176581      0.88020397094427      1.69747655466337
  C           2.28477637051934      1.07932798053455     -0.70887486035912
  H           1.89657206111317      0.18687730909118     -1.21465447423519
  H           3.36449504175126      1.13097698051891     -0.87053065441514
  C          -0.91712973326260      1.77331806691283      2.89909411904194
  H          -1.33468347881754      1.16139188273160      3.70320212086701
  H          -0.77590949959500      2.79612096508669      3.27597211169212
  C          -1.71986049002325      3.08730885499216     -1.39959458212708
  O          -2.42810540607524      3.58906562740696     -2.16206870756915
  H          -0.33199134458957      3.65667604400982      0.51292405048797
  C           2.70035613167904      1.44162534681379     -3.77507046665733
  C           0.26558533403033      1.07108052925786     -3.54929989925985
  C           1.06847079388029      3.33939378883708     -4.08701191896547
  H           2.85909644755774      0.46860542493909     -3.31507579042974
  H           2.63715823934817      1.29161680940992     -4.85284998640644
  H           3.56497996284574      2.06481400327105     -3.57879212927543
  H          -0.69893361156006      1.51071176407963     -3.30188911068570
  H           0.25964024648895      0.78615269366456     -4.60121503283739
  H           0.39158582329605      0.17097775435581     -2.95221955091679
  H           0.22107809755679      3.85265847793969     -3.63026997222802
  H           1.91530272599245      4.01873765953528     -4.13531422639311
  H           0.79520191309966      3.07677584619498     -5.10864546576423
  C           2.81371143643011      3.93464916209906      0.39135605216756
  C           3.83571362416033      3.96737938187697     -1.86223170544922
  C           1.73117939390047      5.25112357531598     -1.40995301152878
  H           3.46883239148158      3.10566993160597      0.65461162467216
  H           3.31050733948442      4.85895784048616      0.68470363163696
  H           1.89190918111426      3.85622563814808      0.96670262335184
  H           3.70069322342479      4.12070937865124     -2.92881612227742
  H           4.44620659969319      4.79000123847809     -1.48890426903213
  H           4.39143250969780      3.04582501182661     -1.69860566826300
  H           1.65343630324403      5.43941255016575     -2.47627878882372
  H           0.72493272481562      5.17940173118544     -0.99658585964332
  H           2.22989021752004      6.10545855888444     -0.95370758816070
  C           0.24137016165996     -1.99199909845881      1.40531906186633
  O           0.86509873717731     -2.04994298219609      2.44589599386010
  C           0.90844934365196     -2.21128051693073      0.09682728470300
  C           0.23742317552907     -2.15630554826602     -1.12374651414149
  C           0.92956921953733     -2.36034329453785     -2.30510515205931
  C           2.29299748344754     -2.60804295442488     -2.28706081410446
  C           2.96867605091541     -2.66632417426781     -1.07771690406511
  C           2.27933768165638     -2.47656043298509      0.10323119555007
  C          -1.22631742684114     -1.66995248391926      1.38133656438076
  H          -0.81981980296704     -1.95067898385337     -1.16504852004103
  H           0.40156751153839     -2.32782553117420     -3.24697009964220
  H           2.82643891767008     -2.76039434426366     -3.21412194100408
  H           4.02999472425194     -2.86706189863578     -1.05969037233871
  H           2.78239172366992     -2.53027442017662      1.05742774686303
  H          -1.78818494610245     -2.46070855614844      0.88949405753618
  H          -1.37724569955249     -0.74273315185679      0.82109408835930
  H          -1.58802804185939     -1.54845947738403      2.40002288545163
