67
Coordinates from ORCA-job A2S E -89.690421090790
  Ru         -0.40187837080732      1.79402676097756     -0.36638207207562
  H          -0.09908159210974      0.29759912831828     -0.59989781462231
  N           0.65327694457612      1.61370199860307      1.40974481937112
  C           1.99305920054845      1.48028279519970      1.40634825275071
  C           0.02176541053061      1.64776866255349      2.59690326056837
  C           2.72715864866694      1.40143023130139      2.58163154074915
  C           0.70276301114299      1.57070152973829      3.80143056515417
  C           2.08183082175443      1.45215905781088      3.80376499611355
  H           3.80007204530176      1.29833931891996      2.52835054400407
  H           0.14915265254494      1.61397427572313      4.72663501167376
  H           2.63428889435229      1.40099150322968      4.72873479900963
  P           1.68764600507516      2.26940784797987     -1.19429555786621
  C           2.34729382535871      1.50232144789311     -2.80026169217800
  C           2.33284428482360      4.06147047000456     -1.04885459651874
  P          -2.14230221702657      1.35826747065411      0.94999194482611
  H          -3.34618636292898      2.06524392059734      1.03064696018597
  H          -2.77501019243913      0.15337532540305      1.29186863166578
  C           2.68823260745373      1.39049601408990      0.08688056843616
  H           2.68864264745599      0.33436610740158     -0.21454067912095
  H           3.72410292311008      1.73308150607822      0.15307870564790
  C          -1.46638153215125      1.83752252199035      2.59844779681402
  H          -1.93677946647113      1.31222000457806      3.43397757043425
  H          -1.67636112820921      2.91216650854730      2.69513544599659
  C          -1.31549222138983      1.95400134209687     -1.96166632177932
  O          -1.87527103305697      2.05430852485448     -2.96779651227930
  H          -0.68873258158602      3.28357431955822     -0.02330532641993
  C           3.85153514302585      1.22689987149351     -2.81261113878247
  C           1.63076002089959      0.16256717052342     -2.97799087905452
  C           1.94080519378014      2.40586066893197     -3.96560092855490
  H           4.11576033630462      0.47983054519755     -2.06823912513262
  H           4.12186889098208      0.82804656115129     -3.79035562864420
  H           4.44663339890256      2.11656607162752     -2.64391222759222
  H           0.55275991859298      0.30793685820028     -3.02238775248811
  H           1.95734192566196     -0.30505021435025     -3.90662078296636
  H           1.85787718871155     -0.51656299105337     -2.16040695584836
  H           0.89916568811444      2.71007971637897     -3.85129122596301
  H           2.56731971758261      3.29166073439339     -4.03062385642865
  H           2.03488787817753      1.86349532649366     -4.90605504603147
  C           2.21668115814229      4.43623398795728      0.43245931520494
  C           3.77647927521980      4.30355423341119     -1.48378245423639
  C           1.38737833631088      4.96246224894772     -1.84543015851052
  H           2.95539806590812      3.91775594446418      1.04179220070903
  H           2.37599695464680      5.50733735191111      0.55424002939235
  H           1.22021808395430      4.20424005454237      0.80699093705330
  H           3.90214142287182      4.19063910680926     -2.55660149841335
  H           4.04972423950534      5.32804039452822     -1.22930592941234
  H           4.46911844802495      3.64102354085077     -0.96820656972893
  H           1.55520269665141      4.88179227370987     -2.91499621058528
  H           0.35302154817617      4.68915755880812     -1.63642311410113
  H           1.53257718963329      6.00382559708573     -1.56004280744294
  C           1.25119804925089     -2.13702664540831      0.14862896838739
  O           2.38699434750299     -1.78128893081699     -0.09418400320177
  C           0.65333920935861     -1.92706216877907      1.49123828799840
  C          -0.72258723000495     -1.86360204559508      1.69899410401373
  C          -1.22074636129945     -1.68002987443180      2.97620254631267
  C          -0.35908839520381     -1.57216340128909      4.05613538211804
  C           1.01028957202092     -1.62620078751471      3.85614319102034
  C           1.51257759578837     -1.79118668003777      2.58006929752739
  C           0.39404170667457     -2.82262392144041     -0.87782357468316
  H          -1.40186681626054     -1.94565316498046      0.86438592407684
  H          -2.28922496893732     -1.63646979151854      3.13518620948059
  H          -0.75551465181587     -1.44558557034739      5.05334210498809
  H           1.68468910814432     -1.54114195287771      4.69543055138073
  H           2.57803530066618     -1.83386685191650      2.40590639133743
  H           1.01149058116777     -3.15755942799520     -1.70775801205640
  H          -0.32738150842318     -2.09883607217707     -1.25630006608625
  H          -0.14325148293025     -3.66199391899012     -0.44426633559687
