67
Coordinates from ORCA-job A3S E -89.657570474550
  Ru          1.92820093398987      3.34406854822522     -0.35877261018740
  H           0.48501031668900      2.25069057359770     -0.37461792187042
  N           2.38841510297954      2.40422535220831      1.46428662687852
  C           2.76443249122986      1.08446736031586      1.41153692015713
  C           2.19452036588955      2.99294304244121      2.64891804809375
  C           2.86894804648266      0.34999282285689      2.62617245482718
  C           2.31410247978823      2.32091116726600      3.84702355599143
  C           2.65037595007802      0.96160769678959      3.82365575363928
  H           3.14115570239151     -0.69308553094039      2.56781116369110
  H           2.15338282466801      2.83778589885176      4.77866773105178
  H           2.74276130772160      0.41406397535810      4.74998154984949
  P           3.28939655552607      1.62628341417039     -1.15856754721227
  C           2.89318405473408      0.71928651288368     -2.77836917443393
  C           5.16827692388935      2.01617276070103     -1.11090084239615
  P           1.11136223673690      4.94520492147120      1.04032129860302
  H           1.63033546558695      6.23598923876772      0.92520037072797
  H          -0.11261268489488      5.43028142325794      1.50115839796070
  C           2.98765786764847      0.48570115783376      0.16449439580868
  H           1.08441337405284      0.13168049052456      0.04440116979124
  H           3.40260367283708     -0.51403874244619      0.13933167320858
  C           1.89063723567123      4.46787398831375      2.64362806636169
  H           1.27057718678999      4.74647134289827      3.49883508898014
  H           2.84080838015935      5.01477201939064      2.70612428767573
  C           1.48923009426747      4.13188471082219     -1.96860130401408
  O           1.24409719258099      4.65635070036667     -2.96615929664489
  H           3.15529176038569      4.24166954437673     -0.28852805602023
  C           3.26408126573863     -0.76155863682992     -2.73111386610695
  C           1.38007940536333      0.82587677176649     -2.98671674578649
  C           3.56364546091126      1.42043432160239     -3.95831027866324
  H           2.68606683849111     -1.27563908161672     -1.96659402662061
  H           3.02980666290127     -1.21959189007199     -3.69187722271703
  H           4.31979723016901     -0.91545183727281     -2.53347585139762
  H           1.06641307654095      1.87192212503960     -2.99839509018522
  H           1.11075015822624      0.38453306964332     -3.94626139341758
  H           0.83684135161149      0.28929341415162     -2.21326395880117
  H           3.38977284059130      2.49454400396062     -3.90167816832764
  H           4.63227614824574      1.23122549574647     -3.99223743568339
  H           3.13527353112927      1.05541821642882     -4.89181095514883
  C           5.46752331564664      2.40206796631995      0.34083950108614
  C           6.03992299073987      0.81166177628221     -1.45991095150436
  C           5.49817128873434      3.21566557801754     -1.99908921381490
  H           5.30378135818324      1.56332685386347      1.01525419915211
  H           6.50737113694405      2.71269105017151      0.43381805767795
  H           4.83421875408195      3.23271882333319      0.65448065287109
  H           5.98105349548239      0.55201965695053     -2.51311597297037
  H           7.08097805383604      1.04436446042834     -1.23568286213386
  H           5.75458058784883     -0.05279531121727     -0.86241955791620
  H           5.56533669274028      2.94512008472714     -3.04723658671170
  H           4.73228475274311      3.98417198496560     -1.88313296951694
  H           6.45677498629378      3.63977911007502     -1.70267387147968
  C          -0.32560205014998      1.49539781668450     -0.02005206566614
  O           0.12462125597418      0.18985392888990     -0.20365975244327
  C          -0.65345770629889      1.79553790789415      1.43080153911221
  C          -1.23504491857365      3.00800018295433      1.78631290191568
  C          -1.52660662597600      3.28633125173688      3.10987186131465
  C          -1.24851959048804      2.35333648273226      4.09446700008021
  C          -0.70022140528139      1.13305911680023      3.74355137887258
  C          -0.40991611905339      0.85270927310088      2.42018597901335
  C          -1.55263239006278      1.69380804982608     -0.91311005677581
  H          -1.49559685253524      3.72413087339372      1.01774193091914
  H          -1.97980283046044      4.23218397965121      3.37194548086456
  H          -1.47042637199876      2.57316407057741      5.12829933491174
  H          -0.49648965408594      0.39170045382295      4.50171124223378
  H           0.00313555475421     -0.10788042225585      2.15154857620958
  H          -1.31349136395212      1.40232437582497     -1.93235642933790
  H          -1.88463327775140      2.72751180860408     -0.91165625703658
  H          -2.35539187513394      1.05574845299457     -0.54952989658931
