67
Coordinates from ORCA-job TSA2R_3R E -89.652925000340
  Ru         -1.28074680507351      0.46805401573683      0.37378112781938
  H          -0.60745908178495     -1.15775780457501      0.30182773533619
  N          -0.11502992386933      0.45114593017007      2.12214835346294
  C           1.25166777959905      0.44880800974384      1.95861739185832
  C          -0.63443633638263      0.33043786039308      3.34977596276704
  C           2.08209123066950      0.28498433638835      3.10394918333287
  C           0.14099893470511      0.21176357606445      4.48409795368998
  C           1.53544341096777      0.18546594188181      4.34666980318078
  H           3.15072367555360      0.26099615933129      2.95413916596639
  H          -0.32322655847876      0.12648609895921      5.45298583188963
  H           2.15931169414455      0.08419971369987      5.22212323313452
  P           0.71527168056706      1.24345792074249     -0.54168997546522
  C           1.33758919334127      0.63913503761795     -2.22442393671031
  C           0.93932581651910      3.14356169006754     -0.45995148922167
  P          -2.93062024946329      0.00531524447931      1.84720383681504
  H          -4.02043095146031      0.86545786053451      1.97535640451766
  H          -3.71370530129296     -1.11636626750263      2.14559880917989
  C           1.79022217338856      0.53117273930911      0.66980529282192
  H           1.50865733116247     -1.49458631535672      0.59815578714791
  H           2.86622157505631      0.60844655357990      0.56964562605478
  C          -2.13811803383620      0.29261837196406      3.49137896142898
  H          -2.42216543753296     -0.49169784487844      4.19965749046012
  H          -2.48959364003179      1.25500130599588      3.88089065656695
  C          -2.24542408299624      0.41431715820965     -1.19865074453520
  O          -2.83843023733487      0.34385248774324     -2.18460398318756
  H          -1.73896620701924      1.90377962341802      0.58555133688687
  C           2.87241854642913      0.63515250394972     -2.31255992988331
  C           0.81990932478329     -0.79273505493391     -2.39168205991692
  C           0.71368716151256      1.47409427380892     -3.34358834631240
  H           3.25972143613098     -0.37531054674296     -2.20813409990017
  H           3.19543820448352      1.01818395935229     -3.27908106788130
  H           3.32971110664425      1.25193214222440     -1.54535772772391
  H          -0.27049998872531     -0.82205619595799     -2.32785010331482
  H           1.10328126698442     -1.17409428839487     -3.37235459986264
  H           1.24101653828199     -1.45941152506005     -1.64443741904397
  H          -0.35735193867950      1.58578916191383     -3.17466343119688
  H           1.16309968340250      2.45977731018987     -3.41803899536352
  H           0.85586615357289      0.96857490943531     -4.29863719744470
  C           0.80490473119316      3.50011238631121      1.02311124831038
  C           2.30398052772887      3.63062016714827     -0.94235061155725
  C          -0.18547886015348      3.84059327298352     -1.22800507805560
  H           1.61681838026490      3.06944694439058      1.60782178963451
  H           0.83199498348928      4.58122740237794      1.15127615640776
  H          -0.14239041957885      3.13096864010099      1.41793214005882
  H           2.47465270354505      3.40861989712411     -1.99163652392321
  H           2.36070016507515      4.71162646819646     -0.81587870573906
  H           3.10392459603997      3.18354496854433     -0.35378579397437
  H           0.00918226495092      3.87173715340963     -2.29496039012759
  H          -1.13176651093975      3.32467439177871     -1.05711758646321
  H          -0.28728165277651      4.86705374582810     -0.87823718367263
  C          -0.29836699422153     -2.25077398607031      0.47150538492552
  O           1.09574488202551     -2.35791440802566      0.36870737520857
  C          -0.98604003764808     -3.07959979217840     -0.58893748955840
  C          -2.32071440066052     -2.85027364424356     -0.89593564564606
  C          -2.96252060075724     -3.62473511905592     -1.84319318995497
  C          -2.27556316839107     -4.63938466311643     -2.48999730683571
  C          -0.94778994324899     -4.87611257777513     -2.18267559974057
  C          -0.30469719491330     -4.10143230129952     -1.23372081429680
  C          -0.76060118337002     -2.72294948390175      1.85752075419400
  H          -2.86061994026311     -2.04998761005570     -0.39664187969331
  H          -3.99800704709803     -3.43258755163828     -2.08108591825589
  H          -2.77617033056809     -5.24122895781985     -3.23375990540744
  H          -0.40767999228091     -5.66574659541430     -2.68384452594995
  H           0.73131128266300     -4.27473402311367     -0.98850801222824
  H          -0.53166992333423     -3.78378066016123      1.95011647810946
  H          -1.83452220238508     -2.58542824804828      1.97988441634802
  H          -0.22680325832501     -2.19150186977807      2.64474158052958
