17
Coordinates from ORCA-job NEB E -41.068421554980
  C           0.98412833036122      0.16861930165532      0.89016907901655
  C          -0.42989508075124      0.24614837116787      0.94555728401454
  F           1.64212993437172      1.34576842881952      0.93845209264079
  H           1.50900739501120     -0.56069488627572      1.50635673245580
  C          -1.24042428538937     -0.87653137704121      1.47856988150168
  C           1.30626423717710     -0.30974752381538     -0.86336845306368
  C           0.66118130482157      0.71582058332633     -1.56740858343606
  C          -0.75189299420291      0.87740519224829     -1.37729061609412
  O          -1.03574877680286      1.08938646985517      0.14795337569911
  F           2.64711078163772     -0.36190578884738     -0.95352288996165
  H           0.90636205639590     -1.32436578724280     -0.86911364019054
  H           1.25896492057368      1.56091218344299     -1.87421712016238
  H          -1.35051187343533     -0.00708697576375     -1.59872705496097
  H          -1.17547402370255      1.76947167505079     -1.82636412201895
  Br         -0.55445149223487     -1.58482784014501      3.14168606358395
  Br         -3.06830247175323     -0.29808664161489      1.71638740955771
  Br         -1.30844796207775     -2.45028538482014      0.16488056141821
