17
Coordinates from ORCA-job NEB_product E -41.097970044580
  C           1.93956805296995     -1.24641705167625     -1.48310249769898
  C           0.75906310990442     -2.15995335528899     -1.17748981729105
  F           1.53337889286067      0.05193219938479     -1.34244437976193
  H           2.79043631498857     -1.39522894876113     -0.80824335649337
  C           1.00828511600444     -3.24907667231071     -0.15159219857706
  C           2.34326450143314     -1.46256993462800     -2.96382230228694
  C           3.64288428779049     -0.78694701783776     -3.26624146350661
  C           3.72255408027080      0.40779974844860     -3.81925375567720
  O          -0.31730560489660     -2.02574586324950     -1.67550571579778
  F           2.44438581769337     -2.82038760875258     -3.16969752973935
  H           1.52283736926000     -1.09987262282519     -3.59570533971932
  H           4.51735240552973     -1.35086752524048     -2.97437938734781
  H           2.84381538446635      0.96301129879444     -4.10186112034945
  H           4.67179048427340      0.87970138624638     -4.00042953924046
  Br          1.03021084618005     -2.26664036716168      1.55160326513194
  Br         -0.44754666765968     -4.50760091269505     -0.15863280509398
  Br          2.68662560893090     -4.17473675244687     -0.37340205655063
