17
Coordinates from ORCA-job NEB_reactant E -41.097044184580
  C           1.62531135909080     -0.17974833001826     -0.14996992640384
  C           1.70724657841563     -1.42254256763661     -0.62361893829034
  F           2.03564009329171      0.90222623937646     -0.83360453752944
  H           1.22674493329905      0.08225431934666      0.81582865864036
  C           1.23044736473105     -2.61109049267413      0.14747567562042
  C           2.65855954825048     -1.59960385319965     -5.15570989441325
  C           3.14251032479476     -1.76620224651786     -3.93991890751319
  C           2.69037745788794     -0.95608139668419     -2.77028046141959
  O           2.17878419839442     -1.87326360204233     -1.80684675093337
  F           3.08963017120861     -2.32741070063569     -6.18896050998717
  H           1.91248008512844     -0.87516841834155     -5.45162208698878
  H           3.88142351022989     -2.52798604945122     -3.74259159185889
  H           1.91213615050871     -0.24383621537311     -3.06397087660243
  H           3.53870073159479     -0.40887856641840     -2.34010376099253
  Br          0.60606430112781     -2.24426436081853      1.93095966903661
  Br         -0.23086943240345     -3.44768923383225     -0.85674920192892
  Br          2.69371262444936     -3.89941452507935      0.26558344156436
