22
Coordinates from ORCA-job NEB_reactant E -39.610958514360
  C           2.71878149545894      0.32382097236911      0.30741800775932
  C           2.03696392659643      1.27289009299847     -0.33495786442650
  C           2.38504875159003     -0.19453172512182      1.66123667079290
  H           3.56201214139576     -0.12147225165987     -0.20280334723270
  N           2.44592508776822      1.66613697973909     -1.68542297017715
  C           1.35708737253063      5.16639223723863     -0.43242653124373
  C           1.91478206239228      4.13837555268198      0.18623488146023
  C           1.11045462339394      3.08490552375067      0.88644967816895
  O           0.91992300543386      1.90350110758448      0.09799942397081
  Cl          2.26417791138024      6.36244145865608     -1.24755059717152
  H           0.28992740258249      5.32512331160313     -0.46372135222034
  H           2.98797647861791      4.00600494752360      0.17644300732151
  H           0.09598995791233      3.43433102517799      1.08200614323633
  H           1.59841732706556      2.81113736287112      1.83160567391789
  C           2.37161072754416     -1.72251467257956      1.67227009701655
  H           1.41570449445948      0.19232152271814      1.97949330408329
  H           3.14700503994894      0.15656577894936      2.36461966954562
  H           1.61568336178632     -2.09807909258454      0.98762598394992
  H           2.14525590078755     -2.08636202114276      2.67091115513937
  H           3.33892377304597     -2.11635589514848      1.37053421748068
  O           1.76941549510475      2.49636209547079     -2.24565603502672
  O           3.43263366320418      1.13290568890440     -2.14940921634473
