25
Coordinates from ORCA-job NEB_product E -38.746413808350
  C           3.02632762859017      1.53638477730693      0.06077201691288
  C           1.56854341579761      1.40556242614564     -0.42277728738386
  N           3.31831050449110      0.29804460937400      0.81813942637420
  H           3.71199520526938      1.52838141537381     -0.79117687446007
  C           1.39903864010664      1.45730303022412     -1.91904627602833
  C           3.21768388316800      2.82846264835683      0.89052336697509
  C           2.14195912189901      3.03207108432612      1.91773665423712
  C           1.32818778684337      4.07031106580393      1.91744212387923
  O           0.66626007937373      1.27574426419968      0.35385633439402
  C           4.59741375993436      2.82769054033122      1.55514819944161
  H           3.17448586398074      3.65539121411157      0.17183880301453
  H           2.07854559632509      2.27659697014578      2.68542279750589
  H           1.37407913868118      4.83464646275614      1.15695729805190
  H           0.57899681414520      4.20169274250994      2.67775504814475
  O           3.88823212202597     -0.56549431141898      0.18898847208773
  O           2.95750725787213      0.20576448735076      1.96035294581313
  C           1.74932900554496      2.83803635846907     -2.47598768422251
  H           0.35913552227966      1.22205423224168     -2.14961940094146
  H           2.04250591841459      0.69930402917567     -2.37147388382696
  H           1.14048075099882      3.60150911101958     -1.99801390371688
  H           1.55158973529235      2.86007104108398     -3.54428363207724
  H           2.79795996035089      3.07837207734508     -2.31978911872698
  H           5.38208211394272      2.64715796149497      0.82249076454656
  H           4.65388303395406      2.06587432439527      2.32867717747804
  H           4.77556714071828      3.79346743787720      2.02076663252761
