25
Coordinates from ORCA-job NEB_reactant E -38.744391821210
  C           1.79390900776013      0.24411094573218     -0.18385674723958
  C           1.24677403236151      1.42397715177687     -0.56876326160440
  N           2.06121398498835     -0.26207945682956      1.09756497866123
  H           2.09268245524861     -0.44706601341019     -0.95774808460903
  C           0.97050111324261      1.61850202976153     -2.04091134931461
  C           3.59348618825709      4.14175841954390      1.70562688570346
  C           2.97460861490686      3.03211181030663      1.33828469396206
  C           1.48896090175519      2.84750731852745      1.38603756605451
  O           0.95215204332660      2.52542385213774      0.09995539920484
  C           5.07127230013143      4.32952729531941      1.69014975352855
  H           3.01759932856980      4.98531521605945      2.06455862180463
  H           3.54591854847432      2.18584583995591      0.98017213649012
  H           0.99005769928729      3.78110547981850      1.65424436130783
  H           1.22911165088005      2.06928226958307      2.11550831693473
  O           2.92066442514886     -1.12373751308208      1.17893265347781
  O           1.40023777013114      0.12692006455543      2.05154671096002
  C           2.19332152625518      2.23524563401134     -2.72345747709071
  H           0.12460212339565      2.29970377333849     -2.13644401368110
  H           0.71910951574126      0.66842056342600     -2.50959769766745
  H           2.45046674953499      3.18125109098616     -2.25340373800568
  H           1.98157402788951      2.41563071179922     -3.77374774282905
  H           3.04831198039378      1.56751239345281     -2.65120215098525
  H           5.57586387052465      3.44441889156001      1.31194312387768
  H           5.43064526302287      4.53592693633431      2.69766574163075
  H           5.33465487877226      5.18328529533543      1.06654131942865
