25
Coordinates from ORCA-job NEB E -35.892942601460
  C           0.40753175052358     -0.09302801875653      1.10617918694455
  C          -0.81035094403604     -0.72277107859898      0.76047418564193
  N           0.45981823686260      0.97242352056609      2.02067094612259
  H           1.29496966280580     -0.71904069268776      1.13239315212863
  C          -0.83743973778692     -2.13936304691871      0.21452721712549
  C           0.61020682603215      0.94103037495724     -0.58745538274558
  C          -0.57348114565352      1.68456014095453     -0.60858294744660
  C          -1.79841635078210      1.02417312713844     -0.76086123907724
  O          -1.86307187723850      0.00960734856167      0.67583595451211
  C           1.92970911417558      1.65834806311040     -0.43541444300411
  H           0.69785232740695      0.10541348626507     -1.26956979649909
  H          -0.56493716548683      2.64307764409308     -0.11060544262097
  H          -1.86978388862758      0.22559885275596     -1.48808761160580
  H          -2.70690024920812      1.59762723290659     -0.65146346359426
  H           0.94463958807483      0.75529652854256      2.87789571187965
  H          -0.46013970560267      1.35723381697594      2.19287981453301
  C           0.02412752110318     -2.42061160897417     -1.01669935471630
  H          -1.87941665303133     -2.37073814050845     -0.01554153207588
  H          -0.51824471914616     -2.80910124061350      1.01901410051211
  H          -0.30790708807629     -1.83477377203013     -1.87067494330895
  H          -0.05785419038840     -3.47291394264409     -1.28138193548068
  H           1.07155413422562     -2.20176263422828     -0.82266836433522
  F           1.81266487326643      2.84597675758328      0.23495292911916
  H           2.33035482100943      1.90380316948654     -1.42865568864194
  H           2.66451485957831      1.05993411206317      0.11283894663337
