25
Coordinates from ORCA-job NEB_product E -35.934490252790
  C           2.99966508193969      0.53699090480568     -1.16647107515423
  C           1.68804350234818     -0.23866875309860     -0.97597425552954
  N           3.30957995624017      1.36058361443216     -0.01431884305799
  H           3.82762703173838     -0.17167602991957     -1.29251244888871
  C           1.64981195775167     -1.67184594481610     -1.46003140331986
  C           2.90489344579608      1.41485768380798     -2.44467445907693
  C           1.56939904591963      2.09187016056292     -2.56275249128905
  C           0.75284028933089      1.92861780117020     -3.58530640495415
  O           0.75992954617526      0.25798684338974     -0.38617774264832
  C           4.03075653763720      2.45970477869129     -2.47656217015884
  H           3.05208360609825      0.76636335840659     -3.31311015543716
  H           1.30675695824335      2.75351201553943     -1.75067576985169
  H           0.99499692992771      1.27999058999200     -4.41286877629957
  H          -0.19459842017292      2.43535357733080     -3.64097785368604
  H           3.32214133614568      0.79867818512383      0.82991465582185
  H           2.59921016296399      2.07481790130642      0.10615524680066
  C           2.04271635389289     -1.85615621996680     -2.92257092867594
  H           0.63906285383507     -2.05054123568206     -1.29580728207354
  H           2.33353148842399     -2.24325263356699     -0.82500062313463
  H           1.40583680256919     -1.25155108789891     -3.56307147724763
  H           1.91834223353510     -2.89929815146034     -3.20364053399556
  H           3.08025656708950     -1.58125063424191     -3.09420452452248
  F           3.74341464946169      3.55265227289128     -1.70411940180945
  H           4.16405282512229      2.83515152336463     -3.49726940036073
  H           4.96684925798705      2.04240947983634     -2.09467188145048
