25
Coordinates from ORCA-job NEB_reactant E -35.927389615170
  C           1.28999257640073     -0.10447361060936      0.15156030494045
  C           1.28744910506001     -0.33510783864768     -1.16370761684707
  N           0.80279157124190      1.04830087744058      0.78019160023058
  H           1.76722228417977     -0.81784251130038      0.80630467710365
  C           1.78461185061141     -1.62648599195069     -1.75785169338751
  C           2.98088076580729      2.28965080843997     -3.94325530260181
  C           2.66330246344049      1.84231633625160     -2.74038064847418
  C           1.27189688008137      1.83987220352420     -2.18347411573159
  O           0.71728529898835      0.53431492091395     -2.08906354887206
  C           4.36279335147065      2.28716145485003     -4.51521704580004
  H           2.23461945546749      2.70424161004211     -4.60727586576390
  H           3.42415242106054      1.42692767854576     -2.09479654879307
  H           0.59076136822242      2.37835883402812     -2.84843558391694
  H           1.28995450847333      2.32805178541543     -1.20071314219249
  H           0.61421775848673      0.91511417886798      1.76278746464298
  H           0.00252976251294      1.44394040846348      0.30434150981313
  C           3.10746831559204     -1.47462652463307     -2.50876395280946
  H           1.02392401881029     -1.98532662685267     -2.45551999945977
  H           1.89727178686804     -2.36424321224899     -0.96243298551731
  H           2.99904691140868     -0.76774559957312     -3.32713782745497
  H           3.41635298729936     -2.43349208770670     -2.91932652876552
  H           3.88871299333957     -1.11791397833667     -1.84139955912813
  F           5.28669632410426      1.77002355846370     -3.64317215799859
  H           4.69021901811891      3.30732978428309     -4.75399623936238
  H           4.40864622295346      1.67335354232933     -5.42426519385399
