20
Coordinates from ORCA-job NEB E -41.432285589960
  C           0.73213532642468     -0.11241248574322     -0.97904200446346
  C          -0.57897887987050     -0.49643277649267     -1.24345816682686
  H           1.45187872939096     -0.90027887073004     -0.81738491269150
  H           1.12157382601968      0.74385410020408     -1.51138091617051
  C          -1.53002124344865      0.45495587772996     -1.93159926313780
  C           0.60921241085645      0.41254312627529      0.87979461815045
  C           0.02942887013862     -0.71710631932234      1.44577743540101
  C          -1.26681983737523     -1.12696796951419      0.98044147486905
  O          -1.11542365796979     -1.46793210042794     -0.54507013266696
  C           2.01833018271200      0.78957508547508      1.26750745977476
  H          -0.01584981392050      1.28342014106397      0.71720343187781
  H           0.68290140675089     -1.47490671099099      1.85463577364415
  H          -2.02814071883356     -0.34851934494161      0.98332915098268
  H          -1.63795382201787     -2.05824471971433      1.39416076713915
  Cl         -2.00373477829497      1.83474817470823     -0.85376344092442
  Cl         -0.78555579777568      1.16176907213884     -3.37623438223574
  Cl         -3.01472994580168     -0.38637859317255     -2.39598031838136
  F           2.83672118473720     -0.31059281457087      1.30423942336721
  H           2.03338946782687      1.22788797125760      2.27263866896122
  H           2.46163709045108      1.49101915676772      0.55418533333111
