20
Coordinates from ORCA-job NEB_reactant E -41.458614249860
  C           1.45784477129825      0.05333546370164      0.11581129053852
  C           1.59793261661430      1.27295504735790      0.61899033933398
  H           1.82739995970074     -0.81799109441417      0.62183119674603
  H           0.96544717249730     -0.10488867781917     -0.82287365704350
  C           1.09596857116863      2.52719518473121     -0.05381180602011
  C           3.36711993421414      2.50354646349866      4.09581557869641
  C           3.35297043682843      1.21175661362702      3.81856561569381
  C           2.74513572867258      0.61055456422672      2.59003871642483
  O           2.19061039472684      1.62898799474773      1.78169708483579
  C           3.97590209932598      3.09563743755412      5.32427255864516
  H           2.92326772622607      3.22311339375743      3.42510339747318
  H           3.79858353085991      0.49441790388738      4.49291614235589
  H           1.96277341587130     -0.10663438371459      2.88061146453763
  H           3.51716021019158      0.06307233058187      2.02869683816029
  Cl          2.47491745514807      3.62106394462162     -0.34252625954236
  Cl          0.29005416286518      2.23192005264080     -1.58959000248104
  Cl         -0.05151787061934      3.34994436491382      1.03548751679285
  F           4.52781555292181      2.14187288195873      6.14208065042301
  H           3.21995866684487      3.62361836027855      5.91906908072046
  H           4.78135546464337      3.79362215386274      5.06351425370916
