20
Coordinates from ORCA-job NEB_product E -41.468925997770
  C           2.26967613414037      1.52306333576685      1.51742998945775
  C           1.18080808484832      2.53454408772152      1.30864747033517
  H           1.89447841548850      0.57634071629507      1.11660616485273
  H           3.16025920930914      1.79347093975257      0.94966254740061
  C           1.26299888567761      3.28005621677245     -0.04565574552570
  C           2.60270806404859      1.32890307189790      3.00464461455394
  C           3.48176305500190      0.12489095694985      3.18576774051200
  C           3.18389946563933     -0.89755541704212      3.96329228599812
  O           0.31205667124125      2.79582375212821      2.08506683904080
  C           3.30978033181600      2.58006746745249      3.53695851907265
  H           1.67444842989267      1.19631584491244      3.56772281759325
  H           4.41444547576998      0.15023967782598      2.63743455464961
  H           2.26535478687217     -0.93345107303991      4.52495981752399
  H           3.84800324115060     -1.73652442589828      4.07810931810424
  Cl          2.65205434867365      4.39304527223672      0.09592164838765
  Cl          1.54869521539503      2.15410177223942     -1.38390348047497
  Cl         -0.20602956515336      4.20893589103520     -0.35326823129584
  F           3.53965495085759      2.45684979753285      4.88177546741660
  H           2.69126296738743      3.47320034186741      3.40194158204643
  H           4.28658183194325      2.72168177359338      3.06088608035097
