18
Coordinates from ORCA-job NEB E -30.024151653030
  C           0.35766894441069      0.51388216845678     -1.25522747368770
  C          -0.81352043528765      1.26321571283645     -1.14268690126506
  C           0.26199628257577     -0.78076740435092     -1.82686653167703
  H           1.28323839117794      1.03321714680244     -1.47851437707056
  Br         -0.53724609770148      3.19930953901426     -0.87593140905284
  C           0.53614010491200     -0.02443648731042      0.70781069665300
  C          -0.72057482404498     -0.58565227606624      0.90645220010623
  C          -1.86500238159034      0.23339582050286      0.85605484928026
  O          -1.91603789556484      0.80051572799770     -0.77277895160614
  C           1.77106423852300     -0.87256821276768      0.75270811676867
  H           0.68608082663832      0.99651668689162      1.04837246839143
  H          -0.84012195883710     -1.64573074677102      0.73156049692290
  H          -1.81601230060265      1.20590561112436      1.33557410638089
  H          -2.83433815430314     -0.23911666048995      0.92549750561120
  N           0.19197441896343     -1.83840311540791     -2.25908666611967
  H           2.62000608081001     -0.36367809516274      0.30290121035159
  H           1.61673469420562     -1.82343429628111      0.24860601568634
  H           2.01795006571540     -1.07217111901848      1.79555464432649
