15
Coordinates from ORCA-job NEB_reactant E -31.399515635190
  C           2.19334010530445     -0.56582514055396     -0.16662264376179
  C           1.89253557385714     -1.77749172156726      0.32715358976437
  C           1.82111209152101     -0.05937861238631     -1.41890511869488
  H           2.77782475749705      0.11077317791702      0.43870884514264
  Cl          2.44783839639035     -2.21043184463786      1.90178360394495
  C           2.98417745433164     -3.15122424475798     -2.36133922284238
  C           1.74654898683272     -2.73549116488745     -2.57237712004352
  C           0.68703467888624     -2.69931924352871     -1.50952050505534
  O           1.19171906436692     -2.78952691437352     -0.18579797954731
  Cl          4.17200110978274     -3.17929364550788     -3.59480122093927
  H           3.34416232494100     -3.50073169050146     -1.40526798273218
  H           1.42868841225541     -2.39403687324906     -3.54511776006884
  H           0.03248361218474     -3.57273754637865     -1.60541820458033
  H           0.07834055273379     -1.79506031278805     -1.62327196495520
  N           1.54509287911480      0.42157577720112     -2.42480631563091
