15
Coordinates from ORCA-job NEB_product E -31.406394904600
  C           2.11396173142310     -1.33190560517258     -0.52442287151306
  C           3.20788097210362     -1.54365204180662      0.50627761708359
  C           2.32522985733935     -0.10095239287973     -1.26092572423386
  H           1.16830558474285     -1.23228139024965      0.02795103715914
  Cl          3.56850034437730     -0.06198939966432      1.38172601031593
  C           2.01047682530982     -2.53327091936116     -1.48200841304002
  C           0.81764668038561     -2.44349165061549     -2.37290252987989
  C          -0.06413027207718     -3.41738279229457     -2.50448250368166
  O           3.75843811540735     -2.55884808025207      0.75562980541079
  Cl          3.49744409691765     -2.56339261848022     -2.50897150087082
  H           2.01910546734186     -3.46198464219050     -0.90666071669804
  H           0.73111865082676     -1.52440075968699     -2.93586265850466
  H           0.02342816422589     -4.34160900415730     -1.95735007310117
  H          -0.90743949446624     -3.32837209778343     -3.16625526116272
  N           2.47953327614226      0.85493339459462     -1.86364221728356
