21
Coordinates from ORCA-job NEB_reactant E -42.851038148160
  C           1.90114550259870     -0.30789268901722     -0.06405816956745
  C           1.39365530372715     -1.06087547283293      0.91272373794765
  C           2.08285695377971     -0.58250340117056     -1.51398873656898
  H           2.23894694531965      0.66987263693411      0.25798943728850
  N           1.32837766835127     -0.47516713834585      2.26063999270240
  C           3.29580293631680     -3.99436881923938     -1.21557539121823
  C           2.73102444525219     -3.41198500914365     -0.16524283378564
  C           1.26164236114870     -3.31544278148935      0.06486950633938
  O           0.88592400062764     -2.31383028092892      0.98091089740959
  N           4.72476284523576     -4.05539099829650     -1.34703301020737
  H           2.76812186983337     -4.46512320196911     -2.03086570377665
  H           3.37048292856457     -2.98463722383688      0.59911997581900
  H           0.91778471177954     -4.24310438419314      0.54177439603738
  H           0.71463714989076     -3.20976504856657     -0.88125895773864
  H           1.56237369852725     -1.46772606820682     -1.86035165675325
  H           3.14660928693763     -0.68564258356273     -1.73305889626706
  H           1.72332922482935      0.27624601126310     -2.07871894045925
  O           1.01564878497849     -1.21261111800306      3.16118680516650
  O           1.59075480098037      0.70138807361798      2.37306893826399
  O           5.39969955468904     -3.49268269337295     -0.51423209808349
  O           5.15161902663211     -4.66445780963956     -2.30199929254840
