18
Coordinates from ORCA-job NEB E -30.026035000850
  C           0.36758407274711     -1.16404409388009     -0.21408464989768
  C          -0.88601105943466     -0.53642015545807     -0.41281555330577
  O           0.52002585241762     -1.95724530388713      0.88710805839704
  H           0.87931282304385     -1.52884549348480     -1.10845334031684
  C          -1.27280889075568     -0.09798326225700     -1.80072445733721
  C           1.35136415497565      0.41881348218712      0.23909341537169
  C           0.68613716549669      0.88302981090744      1.38126861845560
  C          -0.64553693806534      1.31157864070726      1.21453944897487
  O          -1.48492495471560     -0.02249664738651      0.60413896540966
  Cl          2.98132034183373     -0.19192604605063      0.44782724407919
  H           1.27656557365517      0.97552753206298     -0.68868881928987
  H           0.98530034839772      0.48502933434664      2.33899882580272
  H          -0.84948155036641      2.00169875367679      0.40203012800228
  H          -1.20782486377182      1.52926224117313      2.11152721488258
  H           1.46037915280373     -2.13542524741350      1.03118901692725
  H          -1.54432044484255      0.95722038729066     -1.79496489491296
  H          -2.14832555973841     -0.65719810052360     -2.12738907691679
  H          -0.46875522368079     -0.27057583201069     -2.51060014432575
