18
Coordinates from ORCA-job NEB_product E -30.073516350780
  C           3.20679945079581      1.62545203605476     -0.85244430766077
  C           1.81785480206516      2.05395121105586     -1.34440820080834
  O           3.25467403204849      0.24683003633299     -0.62807191815410
  H           3.93040939227474      1.91896283682904     -1.63289136347559
  C           0.81911686914387      0.95059204654693     -1.46201918184667
  C           3.51920264387260      2.43898982545469      0.41670211260165
  C           2.56481764111878      2.14038593688952      1.52013570512166
  C           1.88026250121025      3.06957960047374      2.16081699206124
  O           1.59459781616528      3.20863260669847     -1.60238595072713
  Cl          5.18546626093623      1.99376299819311      0.96230106709544
  H           3.53994482025572      3.50309898897130      0.17642472323854
  H           2.46349746957448      1.09274775766206      1.76868347387121
  H           1.97796497628918      4.11443486243264      1.91765447621539
  H           1.18980611194788      2.82074860777370      2.94774684343182
  H           4.09455890807208      0.05108830026237     -0.18909512928880
  H           1.21194253869884      0.18283778794320     -2.12437379348266
  H          -0.12610337741873      1.33404997386103     -1.83424449199983
  H           0.68678714294934      0.49165458656459     -0.48483105619307
