18
Coordinates from ORCA-job NEB_reactant E -30.058803643970
  C           1.80331526324545      0.17311000074115     -0.09657242924357
  C           1.45108239379305      1.30380616506191     -0.70702717015432
  O           2.21364928890689      0.05068269792515      1.22235223155781
  H           1.76456951699105     -0.74604685235654     -0.66284742162836
  C           0.99117651078630      1.29488193930486     -2.13710976120429
  C           4.21178757430711      3.99268025448892      1.17969574873936
  C           3.49615639395535      2.90812445170915      0.94585373475076
  C           1.99826278358151      2.87772281151018      1.03542394189641
  O           1.39993122465487      2.57960634943900     -0.21049538841518
  Cl          5.92894072622512      4.01668242175456      1.07828727932275
  H           3.78543805391057      4.94138564197154      1.46761907775668
  H           3.96859175694068      1.98219480301296      0.65423703892787
  H           1.61099975281761      3.86440907215943      1.30267464101718
  H           1.69562807749171      2.14719327407423      1.79283837734849
  H           2.58776722085652     -0.82452426325053      1.35384324075906
  H           1.67380452875953      1.88580313942591     -2.74534047697462
  H           0.00701535204093      1.75391516494042     -2.20370041342117
  H           0.94438358073575      0.28417292808773     -2.52803225103486
