17
Coordinates from ORCA-job NEB E -33.270384856470
  C          -0.85682121481724     -0.84065100146513      0.19228457217246
  C          -0.30504565107519     -1.24028817031270      1.39108123126769
  Br         -0.00046740468484     -2.12632822421018     -1.58781764764133
  H          -1.87946937639295     -1.14177990793015      0.01044410304370
  Br         -1.18919241911308     -2.41071331819977      2.56759557305675
  C          -0.49732007364372      0.62455984633930     -0.19388890133858
  C           0.94793369267969      0.79477605166348      0.05413152415291
  C           1.62955573095436      0.06655856696998      1.12732528352831
  O           0.88644595295619     -0.86313263821345      1.87123149437006
  C          -0.91106168962023      1.03515310856045     -1.61761426665092
  H          -1.10752436236659      1.24657777221308      0.48122929697375
  H           1.57004583644173      1.17049979767587     -0.73968522346567
  H           2.05532263500075      0.75009170914362      1.87719601317668
  H           2.48188956179347     -0.47946617538336      0.69541649584402
  F           0.10837895854449      0.89660045678359     -2.51563949958238
  H          -1.18927965297858      2.09412757293768     -1.63635446935764
  H          -1.74339052367826      0.42341455342768     -1.97693557954981
