17
Coordinates from ORCA-job NEB_reactant E -33.327632901340
  C           0.96600917697856      0.53909877953339     -0.89918517891055
  C           2.15627970421608      1.07680020286212     -0.65371964158993
  Br         -0.61599716720636      1.49772191619985     -0.52762692980865
  H           0.82779431453485     -0.44889846256027     -1.29721565182218
  Br          3.70004401908533      0.02287443818438     -1.12291031212666
  C           2.23647453724183      3.68000263454294     -2.49278498630225
  C           3.34617865532843      3.62535153808656     -1.77608013861669
  C           3.44202311705735      3.05751114265020     -0.39171579309379
  O           2.34362539345089      2.23309387680782     -0.03220380405928
  C           2.15190691845671      4.24575516228707     -3.87207936590398
  H           1.29005711953043      3.32034626166950     -2.11400705986305
  H           4.27585940465283      4.00790953850352     -2.17147109013973
  H           3.43320296332421      3.86171140641087      0.35094934258008
  H           4.38135717545183      2.49916708724352     -0.28232328294845
  F           3.35615717880778      4.73677618187340     -4.30414819464602
  H           1.43623403609448      5.07652196918445     -3.90498703310446
  H           1.84419345299475      3.47685632652068     -4.59229087964439
