17
Coordinates from ORCA-job NEB_product E -33.343320396570
  C           2.03287843660274      1.59863312555927     -1.80980999881711
  C           0.80192995495061      1.16822846360712     -2.54503752776987
  Br          1.68342598568670      1.02651932266777      0.03841720138914
  H           2.91414774058251      1.04005828288801     -2.13295074206422
  Br          0.80562698604085     -0.74630439957549     -2.92997982337812
  C           2.26787985560547      3.11077165647230     -1.87043799322585
  C           3.43978490640818      3.48280624592083     -1.00492093307266
  C           3.34779921777724      4.24840735948811      0.06451404721769
  O          -0.12422116536487      1.83293846218571     -2.85894700446355
  C           2.52941382790649      3.52449515627938     -3.32495422931345
  H           1.36624884677400      3.63104480732484     -1.53109315741757
  H           4.38879166422935      3.07276178926216     -1.32270395296194
  H           2.40680436297870      4.65851968646838      0.39276702831523
  H           4.20969623285119      4.49042938068677      0.66073369214132
  F           3.55686718105368      2.78410242023786     -3.85268251828697
  H           2.83120200899646      4.57479673007445     -3.37374125951085
  H           1.65422395692069      3.35649151045252     -3.95967282878123
