20
Coordinates from ORCA-job NEB E -37.196541305080
  C           1.08348170823011     -0.05357451866200     -0.49134327153297
  C           0.59870447437419      0.65785799755367     -1.60696845674587
  C           1.06912899192094     -1.56006878940492     -0.54166624027433
  H           2.04666641533834      0.28187212033052     -0.11369423198032
  H           1.05079007296002      1.63537166308377     -1.80644288634636
  C          -0.18877685070551      0.61059453550990      0.82636789279446
  C          -1.42505523386430      0.33156384716479      0.23059526795208
  C          -1.74644965073936      0.93870469528871     -1.00904336219861
  O          -0.58195567284417      0.43199393881634     -2.06732997340118
  C           0.11589179797772      0.02192292521407      2.17630628364657
  H           0.15600575613601      1.63819939330713      0.74506299487030
  H          -1.93502499742293     -0.57844010959511      0.50613799291265
  H          -1.59393253563907      2.01133009133916     -1.08745565067375
  H          -2.65483963755481      0.60798076789170     -1.49607349596396
  Cl          1.76173698790778     -2.29666935100117      0.92069470438205
  Cl         -0.48250960011260     -2.31499915757167     -0.87480627304481
  Cl          2.18153467165461     -2.03315914337359     -1.89145794593802
  H          -0.25378039187350     -0.99529916099006      2.26015270807126
  H          -0.38238359166352      0.62941702861224      2.93199481676150
  H           1.18076728592005      0.03540122648652      2.38896912670930
