20
Coordinates from ORCA-job NEB_reactant E -37.239179809450
  C           1.63948536170991     -0.03582788799215     -0.04994281080054
  C           0.93015878153818      0.86249952855144      0.63976598441825
  C           2.10950245501897     -1.30590729541548      0.55025967993026
  H           1.89307569261527      0.14598320244622     -1.07854611791349
  H           0.60639289611021      1.78026395678347      0.15859840709832
  C          -0.14208205265119      2.09854198394581      4.99967708951759
  C          -0.40578713149444      1.32423635200637      3.96103102960889
  C          -0.17146910191676      1.71478171365799      2.53575898097236
  O           0.59272152166161      0.68590788055182      1.91712911143858
  C          -0.38369414936900      1.71903753897943      6.41981068234154
  H           0.26636120652544      3.08975118451612      4.84519777665958
  H          -0.80288755837191      0.32831104976052      4.09407754152563
  H           0.36454029198179      2.67079751488022      2.47579967821612
  H          -1.13294250099349      1.81582376049424      2.00882175354888
  Cl          0.73836570036791     -2.29350957342473      1.13599096171981
  Cl          3.01101279242850     -2.26595266077728     -0.63308781889567
  Cl          3.18029181243750     -1.00436824855837      1.95294060839390
  H          -0.78849602312681      0.71352741709109      6.49274218425755
  H          -1.08163371010033      2.41711503300757      6.88123006720577
  H           0.54818371562863      1.76748754949571      6.98174521075666
