20
Coordinates from ORCA-job NEB_product E -37.238161040660
  C           1.49183223300777      0.59815838446471      2.27493506611903
  C           1.58846295159914      1.45640411897520      1.02487631535438
  C           1.18508891258941     -0.85358888201653      1.92172770762510
  H           2.49015728134229      0.60661211428582      2.73000432936800
  H           1.95341398763360      2.47439917599327      1.26552767156684
  C           0.53018452765329      1.31227298343133      3.27649746817856
  C          -0.89934267418307      0.87191624171770      3.15484215300116
  C          -1.84465100378017      1.60320422050558      2.59575134539459
  O           1.31269624329199      1.14153247782339     -0.09125074051645
  C           1.00788715840216      1.15757382035525      4.72165462873355
  H           0.57318191394918      2.37923285915436      3.02583307614860
  H          -1.13382644427703     -0.08355843935556      3.60091313493941
  H          -1.63601253152433      2.56264284995970      2.15030893702208
  H          -2.86622449011350      1.26907089038047      2.54758040756039
  Cl          1.07146335436391     -1.87889216891895      3.36806071321034
  Cl         -0.30223276280937     -1.04878552048340      0.98226158398400
  Cl          2.54554047279684     -1.48978192328368      0.94223544525952
  H           0.99872965047440      0.11742524859356      5.03046707471115
  H           0.34578529316320      1.71682956812984      5.37854489059734
  H           2.01566592642031      1.54953198028793      4.83832879174241
