22
Coordinates from ORCA-job NEB E -42.124005006490
  C           0.48363718258243     -1.00777246471614      0.68692737124876
  C          -0.57935160166144     -1.07692603612496     -0.23123278689209
  C           0.15976351285498     -0.92442334040476      2.06309701282528
  H           1.36995995666980     -1.58923049329858      0.45913796901097
  O          -0.30941418656215     -1.70409874628192     -1.39938601071245
  C           0.96640581210492      0.93118586757837      0.29484946249277
  C          -0.22450702480103      1.57494816687745      0.60020045278760
  C          -1.35258113387615      1.28402860134771     -0.20752651809612
  O          -1.63830864221389     -0.36881193978726     -0.09908461704298
  C           2.20700938113984      1.20652363250505      1.10532620002066
  H           1.21726457030340      0.74965852577748     -0.74600894174538
  H          -0.38528299977334      1.88846032284906      1.62093433547561
  H          -1.21398913574028      1.35233338513678     -1.28191338648271
  H          -2.30657338921187      1.67269213629438      0.12178442829394
  N          -0.11995677250482     -0.86819924517175      3.17150100184913
  C          -1.32664994996189     -1.69305130912502     -2.38669712667744
  H          -1.04538019272582     -2.45183485482099     -3.11306248726958
  H          -1.38679279547529     -0.71788456687678     -2.87616603722189
  H          -2.29637146104883     -1.93077206621031     -1.94480702935530
  F           1.96542452837608      1.31247140010247      2.42621035780838
  F           3.12251834009390      0.21542022589842      0.95391397869174
  H           2.69317600143146      2.14528279845131      0.78200237099112
