22
Coordinates from ORCA-job NEB_product E -42.181330640960
  C           3.23902163206984      1.56193859513982     -1.09417840613916
  C           2.19359968398375      1.31676197469999     -2.19126420817838
  C           2.91806459261206      0.73016401071741      0.04380850630996
  H           4.20939123039817      1.23337745456344     -1.49019202308763
  O           2.04918103489627      0.01616919323691     -2.40734354214182
  C           3.29634095620493      3.06381239849540     -0.73329910418548
  C           2.19020175861071      3.44417065803346      0.21255580594726
  C           1.14693401593618      4.16608492105319     -0.14628511764440
  O           1.60698657302530      2.18442466107349     -2.77483096978149
  C           4.65587518831033      3.41233328499685     -0.12912983480693
  H           3.19634248025583      3.62914481673864     -1.66638199558075
  H           2.29460469977941      3.06227908284901      1.21919565111640
  H           1.03021821299878      4.53023553966904     -1.15336263745524
  H           0.36175434455415      4.40568272560663      0.54921079251030
  N           2.64772841312225      0.07138253953102      0.93616408543195
  C           1.10169710413651     -0.36447703442026     -3.39943434067016
  H           1.00113697742831     -1.44342324495108     -3.32108182331050
  H           1.46291546941422     -0.08382400949189     -4.39061701822438
  H           0.14520105011652      0.12780976322398     -3.21646694802898
  F           4.93603952943328      2.65480168911060      0.95480784950868
  F           5.64976994873949      3.16818170121812     -1.02267747541997
  H           4.72469510397371      4.46936927890622      0.16970275383073
