17
Coordinates from ORCA-job NEB E -37.313130113640
  C           0.83608383780929      1.02135441181280      0.56998955684351
  C           0.67026572153688      0.00709239286036      1.52758617938758
  O           1.99268144778847      1.08874847875931     -0.12668987171755
  H           0.33017058735371      1.96363895307025      0.76213780454713
  Cl         -0.69618087876464      0.33808943573828      2.61355277616990
  C          -0.39678463984237      0.07780320197304     -0.85210749422772
  C          -0.79932336872271     -1.15454138927377     -0.35011936884521
  C           0.19598209275125     -2.05375179031616      0.03442293837805
  O           1.01277501087505     -1.18023044767900      1.39193910287842
  N          -1.37234570845929      1.10907420597388     -1.08867020470371
  H           0.43715418566591      0.13107983904271     -1.54134206899197
  H          -1.78932991205784     -1.22223188470873      0.08141693071125
  H           1.09818369474014     -2.11307920800973     -0.55814216787166
  H          -0.08721193226208     -2.97072088341076      0.52775826430894
  H           2.03165346111802      1.90488228161533     -0.64207043876493
  O          -2.49070795651378      0.96578873439283     -0.65819313923586
  O          -0.97306564301601      2.08700366815934     -1.69146879886617
