26
Coordinates from ORCA-job NEB E -34.951862151310
  C          -0.33873894346528     -0.74323249673741     -1.42646385139859
  C          -1.37079720653509     -0.03598857943875     -1.85833096851527
  C          -0.52874253144660     -2.20194929186890     -1.04918470594579
  H           0.61625681339096     -0.54466423841647     -1.89654623480702
  Br         -2.29136906783097     -0.45614999158396     -4.03808759820312
  C          -0.06309695778039      1.41572471491855      1.19027608711936
  C          -0.72233197052621      1.87236289941622      0.13691138903295
  C          -2.11323981199882      1.47016582323157     -0.22001375250858
  O          -2.19038198592353      0.84267098699365     -1.53320989227658
  C           1.32883767128616      1.81028752629546      1.55353287933367
  H          -0.53470484035220      0.70357299996737      1.85579603300008
  H          -0.26041788880065      2.57745580349278     -0.54068863975931
  H          -2.77476847879502      2.33602619314819     -0.30790980022712
  H          -2.52240446738957      0.76494701213599      0.50899841082492
  C           0.56434857749028     -2.64812868471295     -0.08747007100084
  H          -0.50311474135565     -2.81754345894403     -1.95356999410604
  H          -1.50903222041488     -2.33072637492332     -0.58760471176652
  H           1.54458333273004     -2.54230363367548     -0.54592925709379
  H           0.41958943560481     -3.69224014606476      0.17941073670545
  H           0.54246754573807     -2.05214190097193      0.82172074274137
  C           2.24840907497073      0.58986721194454      1.59835843164878
  H           1.31733303401158      2.28271244128660      2.53965733236706
  H           1.71040907231293      2.53492459525317      0.83304511931112
  H           1.89359239035532     -0.13105484675809      2.33132058032628
  H           3.25724357007379      0.88839369089314      1.87091839976624
  H           2.28007059465018      0.10701174511881      0.62506333543129
