26
Coordinates from ORCA-job NEB_product E -35.047399759050
  C           2.75177981522594      1.01642345279150      0.98050585202549
  C           2.17288807192023      1.53033836229205     -0.29279970363374
  C           1.94248995353933     -0.21521954360242      1.41735806794129
  H           3.79140412119151      0.72775785513347      0.80455445123187
  Br          3.49445546087799      2.54122978689764     -1.38359638636431
  C           2.71925273325990      2.13546813636446      2.06834925966510
  C           1.58428587209306      3.08649873944700      1.81119857672842
  C           0.44089787494901      3.07011033314982      2.46877464636925
  O           1.08779980809532      1.40801680779442     -0.73685854995074
  C           4.04298140769220      2.90374372155315      2.17734714165681
  H           2.53775115055537      1.63844280661848      3.02591488186722
  H           1.75525813243887      3.82061341525065      1.03411082503618
  H          -0.35088424772499      3.76611247948406      2.25253349466412
  H           0.24652273964668      2.35728952042809      3.25417509400779
  C           2.69236219769736     -1.05957623532484      2.43926797471832
  H           1.73012957089362     -0.83011384563692      0.53970502906581
  H           0.98438865974868      0.11443068067719      1.82295181013770
  H           3.62846981694628     -1.42351594739598      2.02113979127522
  H           2.08964230974340     -1.91813187786597      2.72383284709271
  H           2.91841386629480     -0.49116307064062      3.33784930766509
  C           5.16184236182707      2.07426288493812      2.79561083387523
  H           3.86598102911892      3.77817379858687      2.80828348945458
  H           4.35293281353257      3.26558931402204      1.19672172598791
  H           4.87931148377680      1.72777247469906      3.78771801546663
  H           6.06172065153205      2.67673817111070      2.88802646957124
  H           5.40222234512805      1.20680777922797      2.18572505444482
