31
Coordinates from ORCA-job P E -38.064440780580
  C          -2.06727519871332      0.34772216032166     -2.15105003394608
  C          -0.21969752160324     -1.56591347911031     -1.41461169899357
  C          -1.65625220925513     -1.96748991831218     -1.52029705635303
  C          -2.54538899855318     -1.04472981162612     -1.85086855873538
  C          -1.08525304594416      0.82347793847919     -1.05807229597473
  C          -0.14721911958490     -0.29432443794065     -0.53999957533243
  H          -1.93713496968029     -2.98640007389661     -1.30323666585769
  H          -3.60323907815622     -1.23959118079514     -1.93903419531659
  O          -3.11693270148944      1.27009393230538     -2.33597892970593
  H           0.38369392999280     -2.34272669140915     -0.94701392091485
  H          -1.54857595839530      0.33544569286159     -3.11950837393368
  H           0.17258571151896     -1.38491223535897     -2.41272993922561
  H          -1.68049959698942      1.20273692731903     -0.22240348125756
  H          -0.55843141009509     -0.62458912157124      0.42111221951547
  H          -0.51307476650918      1.66497118969144     -1.44654425709127
  N           1.22699351608819      0.09566553587001     -0.23518886305667
  H          -3.64761225181314      1.29540587423703     -1.53147805433366
  C           1.97609522201335      0.92980360107804     -1.18054035164785
  C           3.47253311110005      0.84918770072242     -0.84329703628988
  C           1.81700874446940      0.51617162138648     -2.64188292458947
  C           1.32409707940049      0.64603015182741      1.10508087296914
  H           1.66327339433826      1.98933852951171     -1.08868593036881
  H           3.74990689816966     -0.18805475094354     -0.67578345855814
  H           3.72830847166325      1.42995538679591      0.03784152040766
  H           4.05733535721134      1.23724078281703     -1.67332933991519
  H           2.17375275874761     -0.50030109362514     -2.78390486697994
  H           2.42034536580246      1.17935444982872     -3.25911029669411
  H           0.79090087708183      0.59377743059991     -2.98387979547996
  H           0.78983752282838      0.00381538266645      1.80281215368778
  H           0.90969891212650      1.66404493352786      1.17950061805770
  H           2.36376995422949      0.67453357274178      1.41957251591435
