31
Coordinates from ORCA-job R E -38.009158405760
  C          -1.64005874636391     -0.67058642671326     -2.70778944684658
  C          -0.93466428840607     -3.59988155960258     -2.39667547490050
  C          -1.32131185049630     -2.76817264861429     -1.43334651717103
  C          -1.56181992511566     -1.34663710169821     -1.55798961475665
  C          -1.16856330393668      2.34415742014671     -0.43437125411224
  C          -0.45505662340542      1.42688112694154      0.22903413891786
  H          -1.46370757947442     -3.16202855568964     -0.43402312164799
  H          -1.69767580193716     -0.80203801632199     -0.63276589731588
  O          -1.83822609240465      0.65377523122177     -2.83296574326562
  H          -0.78198242976116     -4.64750278673774     -2.20343031622824
  H          -1.55796027609962     -1.14990701037408     -3.67328943442351
  H          -0.75728377996460     -3.27238937862946     -3.40634123985559
  H          -2.16646061219561      2.57590026748367     -0.10805488523720
  H          -0.94103492558816      0.89636623820124      1.04058026516459
  H          -0.77902301777389      2.95497607210500     -1.22887935493551
  N           0.84477489579080      1.04689117195818      0.06751526304247
  H          -1.80798142891606      1.09652745897247     -1.95788936333516
  C           1.68207925638545      1.60798403808336     -0.97700867416678
  C           3.05129949596157      2.01541830335962     -0.42392383275699
  C           1.83472040668619      0.66375520996796     -2.17255824900631
  C           1.25304312221022     -0.20914119041022      0.65052162777428
  H           1.18347419432084      2.51875719973001     -1.31510349762239
  H           3.67647813778121      1.14923671507739     -0.22200104198426
  H           2.93031038377992      2.58423103772664      0.49478714549848
  H           3.56606571252987      2.63694698399919     -1.15179084219081
  H           2.39395768509484     -0.22660968446227     -1.89519330199208
  H           2.36760364260450      1.16753817709498     -2.97453471011149
  H           0.85973748904462      0.35861777241109     -2.54309335937356
  H           0.76603633030831     -0.33934347265484      1.61690800977846
  H           2.32865748277541     -0.21053607803555      0.81232755862846
  H           0.99163244656562     -1.06386651453669      0.01434516443177
