31
Coordinates from ORCA-job TS E -37.987134472280
  C          -2.17985551046514      0.17558690281602     -1.25801523705434
  C          -0.94111729305525     -2.12808956968576     -0.08237587932090
  C          -2.28510577240410     -2.00676678488700     -0.20736767623290
  C          -2.91043815873723     -0.93037536099130     -0.85518377751083
  C          -1.44345334084119      0.88561590525252      0.51748937668509
  C          -0.49183057655560      0.05148032800914      1.07336711755321
  H          -2.92366050486492     -2.70581628828569      0.31833747817181
  H          -3.98558386559786     -0.83028096162169     -0.76866378221636
  O          -2.79131401176571      1.26218430805315     -1.82561927912484
  H          -0.51784313216219     -2.92781847355225      0.50297107525035
  H          -1.19735985771374      0.04827516570813     -1.68990432385561
  H          -0.26579517044300     -1.61632909202005     -0.73964181970989
  H          -2.38905821448109      0.92700434334287      1.03238859462920
  H          -0.78022980000392     -0.61399993764346      1.87050244997309
  H          -1.14473622737727      1.81925641696079      0.07155919093446
  N           0.85955314336113      0.13280570717496      0.88578621741859
  H          -3.72331197283628      1.26385979360285     -1.57463747678332
  C           1.45334554585770      0.91323613944733     -0.18520214499590
  C           2.24793434805437      2.08928269761064      0.39443165877475
  C           2.33057668084521      0.07407394995503     -1.11764061150924
  C           1.70270061902972     -0.80807155653880      1.57682408942535
  H           0.63330175943676      1.31898257669425     -0.78076309211559
  H           3.10999927337080      1.73969997479517      0.95735886081573
  H           1.61570124248182      2.67348877677731      1.05831653778622
  H           2.60125518755197      2.73228920945389     -0.40725190297819
  H           3.22677525527276     -0.27960499368811     -0.61419891366070
  H           2.63490747337400      0.68112561594235     -1.96670928711366
  H           1.77705111933302     -0.78267039436828     -1.49478064696628
  H           1.27455896267992     -1.03448682228790      2.55238144478854
  H           2.68991244743607     -0.37558537174462      1.73201292866242
  H           1.81312035121922     -1.74835220428149      1.02422883027973
