14
Coordinates from ORCA-job NEB_reactant E -30.532369290420
  C           1.91126987090236     -0.30020230251571     -0.05936012997770
  C           1.31793761784119     -0.91745309086866      0.95438735415205
  F           2.65623898555039     -0.97540591729544     -0.94671477565824
  H           1.86765499801014      0.75836128070194     -0.25253194037645
  I           0.15279422443336      0.31594453723470      2.25401547951144
  C          -0.73328806653848     -4.21318165804796     -0.29015632615967
  C          -0.58666491821766     -3.09891333278707      0.40102095230850
  C           0.34062174005193     -2.98677454368694      1.56917717844203
  O           1.48834051393796     -2.19847532035382      1.27176965620053
  F          -1.56068906330232     -4.28979528583174     -1.33552804281410
  H          -0.23923016857322     -5.15355613978180     -0.08993230034115
  H          -1.12567603295814     -2.20812679543806      0.10956802917752
  H           0.74272151224140     -3.96098326287400      1.85110661502969
  H          -0.18693121337892     -2.54513816845545      2.42727825050554
