14
Coordinates from ORCA-job NEB_product E -30.545649970130
  C           1.23838216176585     -1.45811449250707     -0.50540498420470
  C           1.64731131024372     -1.06931071132037      0.89553292775607
  F           2.37046525725235     -1.79878744190783     -1.19784042116016
  H           0.76016975399553     -0.63310683945399     -1.04519172609152
  I           0.43965195762425      0.53168056898321      1.69479035984710
  C           0.29189878237946     -2.68409538221148     -0.45851736179597
  C          -0.68589832204270     -2.62444139243012      0.67786593526776
  C          -0.54897090162869     -3.31748957412137      1.79237725703775
  O           2.50902080135355     -1.54787905498146      1.53868404939431
  F          -0.39353660741097     -2.72155159640115     -1.65027528233900
  H           0.91137296890640     -3.58902195337174     -0.41736405725112
  H          -1.53567566495438     -1.97819274262014      0.50816068424739
  H           0.29032689359850     -3.97310545677691      1.95847860718074
  H          -1.26811839108287     -3.24448393087958      2.58890401211136
