20
Coordinates from ORCA-job NEB E -37.872104292110
  C           0.65383872015208     -0.63004211396665     -0.79631982403432
  C          -0.67849785243523     -1.01427189639483     -0.55587267668281
  O           1.67527376362592     -1.32311100149262     -0.21334325135363
  H           0.93284563578302     -0.27590197395077     -1.78253747295980
  C          -1.75391056933772     -0.53003333791020     -1.51967636350705
  C           0.68031550783973      1.06634951307178      0.28264949047170
  C           0.32037401053943      0.52521945263894      1.53969434901482
  C          -0.95516939347894      0.07795972472099      1.78751769495258
  O          -1.01853867535145     -1.43281941438190      0.59092239070955
  N           1.95902947306052      1.55407589302572      0.10527356686407
  H          -0.07218742074214      1.62491356690421     -0.26027358897806
  H           1.12937443716769      0.17876470146877      2.17003773215131
  H          -1.79527391100499      0.55287836725827      1.30590783969718
  H          -1.17607980754300     -0.42352797990711      2.71444081498385
  H           1.29669138086504     -1.82584013994151      0.52493073946921
  F          -1.97580836958834      0.81430747752863     -1.41354968925208
  F          -1.37873229938010     -0.72950653381618     -2.80698603686066
  H          -2.71150182762801     -1.04066979594360     -1.34730486209924
  H           2.68516448373005      0.97496669111621      0.50526159474101
  H           2.18279271372645      1.85628879997184     -0.83077244732764
