20
Coordinates from ORCA-job NEB_product E -37.887264764020
  C           1.73502623518545      1.56385193316565      0.38573476624467
  C           1.16240845683109      2.28168079343064     -0.87740956731300
  O           0.71352421669994      0.90391717560213      1.04820540571450
  H           2.53263083533374      0.85204545216299      0.15934718550219
  C           2.07363279477766      2.31755797513410     -2.11652780843609
  C           2.24305284593448      2.84720485446005      1.09931285720598
  C           3.69270988535261      2.82323000978628      1.44721911522958
  C           4.15469010709997      2.82951822005637      2.68384371853593
  O          -0.04443766245470      2.39761942301903     -0.99537861393994
  N           1.91788406718122      3.82501881792151      0.03458924054302
  H           1.63499135779104      3.03049747076010      1.98875230679085
  H           4.36381679590480      2.76574292385772      0.60041512952548
  H           3.49597700465226      2.87124128554703      3.53537947885798
  H           5.20870690917027      2.78239287960538      2.89492422420661
  H          -0.12055583374206      1.28053267311038      0.70903903562982
  F           1.97953265238809      3.50093993668236     -2.76346114502172
  F           3.38437996598420      2.17904919636150     -1.78835411981097
  H           1.80792255868223      1.51478647825114     -2.82076958780217
  H           2.73481321746838      4.23824672235406     -0.40348474574568
  H           1.25359358975935      4.54392577873157      0.29442312408296
