20
Coordinates from ORCA-job NEB_reactant E -37.888367106340
  C           2.25228851565798      0.79755652429786     -0.22648810272598
  C           1.30822978836827      1.74457156550469     -0.21082531935851
  O           2.99667613600952      0.40575944862613      0.85449804256785
  H           2.44644988168852      0.28215817474877     -1.15725818624148
  C           0.56540137990435      2.04044812907324     -1.49138781210760
  C           3.20746637975080      4.16721421475456      0.72501981750155
  C           2.98917060239299      3.31332829967327      1.72172123434814
  C           1.66273518493374      2.65453947786511      1.96812425609076
  O           0.86782642255724      2.53651439107166      0.79766720226261
  N           4.38160829584556      4.86448620928557      0.51770435884143
  H           2.41736488365658      4.41837881564467      0.03117472862165
  H           3.77191348620062      3.06257810540936      2.42194260916045
  H           1.04177512425163      3.25942604050237      2.63958743200687
  H           1.81502695761756      1.67111232870642      2.42426429223656
  H           3.73385583103457     -0.13863744134603      0.56221453890971
  F          -0.77231403174044      2.05984029579496     -1.30644640425791
  F           0.89555646671721      3.27333741712149     -1.96426639334192
  H           0.78443058991171      1.31509540242393     -2.28964441340091
  H           5.18224755246607      4.51546049707879      1.02298690203227
  H           4.58069055277552      5.11613210376321     -0.43698878314554
