14
Coordinates from ORCA-job NEB E -29.660472904560
  C          -1.03978293291015     -0.49207963104600      0.47117257353268
  C          -0.22183933560257      0.07467989902675      1.49287999398815
  I          -0.48704973421638     -2.62830806335067      0.12852620294767
  H          -2.09153881716147     -0.53676567078451      0.73868105901719
  Br         -0.94575208704014      0.82285955158350      3.05530986208130
  C          -0.82156460184133      0.30995767269793     -0.86383615444803
  C           0.59644350746465      0.52054023602069     -1.08036189789551
  C           1.56577417550038      0.28085942204523      0.01249854816869
  O           1.07872249259784      0.32610675652794      1.32592525249480
  Cl         -1.60122426017783     -0.54762181609481     -2.28888777182682
  H          -1.43502593426883      1.21026837193627     -0.77261527043515
  H           0.99017415326952      0.34096042325189     -2.06734849207975
  H           2.37248272371039      1.02189887452023     -0.00203950505519
  H           2.04018065067591     -0.70335602633444     -0.14990440049004
