14
Coordinates from ORCA-job NEB_reactant E -29.713523635990
  C           0.98364775931492     -0.19339113660972     -0.89778478234668
  C           2.20004565767202      0.27746888019558     -1.13014274536337
  I          -0.69855394504653      0.94480051457064     -1.40957707226220
  H           0.79243855204560     -1.13998908662214     -0.43103555116284
  Br          3.69263243347646     -0.84508672886165     -0.66627412789782
  C           2.49118087886418      0.51789766494418     -4.25248345872684
  C           3.58758561294849      0.99905106047358     -3.69020567397442
  C           3.59439705981222      1.73862064668454     -2.38348379818810
  O           2.44880832987816      1.50293284901945     -1.58511042995506
  Cl          2.51138797992176     -0.33874295725124     -5.73774311940899
  H           1.50238511934959      0.63171050023539     -3.83359374536897
  H           4.55401876590487      0.87485670700907     -4.15412471201464
  H           3.58782820560386      2.81984354241155     -2.55596355892655
  H           4.50349759025440      1.48522754380076     -1.82177722440353
