14
Coordinates from ORCA-job NEB_product E -29.728268908340
  C           2.27972414559438     -0.33150298433022     -1.92110134317879
  C           1.19350339342522     -1.30065936074637     -2.25526987599970
  I           1.46933794899887      0.79824885273542     -0.25402684644969
  H           3.17083022611031     -0.82969073938765     -1.53961921779594
  Br          1.31596597547680     -2.93309639650976     -1.18215997311135
  C           2.60299893708635      0.58791338126451     -3.08441698190871
  C           3.60631551777297      1.63448871823100     -2.74248930741990
  C           3.42732907303981      2.91924341121666     -2.98968471422103
  O           0.30850699859097     -1.16778337154092     -3.02403624645750
  Cl          3.29361789218004     -0.49032044451324     -4.36661350244426
  H           1.69154800347636      1.02209338499860     -3.50358238299321
  H           4.51640253925042      1.27072534693251     -2.28607534248567
  H           2.52757292486162      3.29026640850411     -3.45189736728779
  H           4.17314642413590      3.65027379314536     -2.73272689824645
