16
Coordinates from ORCA-job NEB E -30.717324803900
  C           1.87872292651929     -0.17282709697313      2.45544184318408
  C          -2.00757800255933     -0.42825848882567      1.37052676670286
  O           1.01959820110331     -1.10759420538505      2.74636789752671
  H           2.83331548433791     -0.69691632593545      2.24630589319917
  Br         -1.98333087146506      0.55389688012372      3.07047681797817
  C           0.47440545841042      0.28376250794867     -2.34277682136641
  C          -0.55317843096558      0.17700665281186     -1.48789571231559
  C          -0.62608157344359      0.79242142247258     -0.12725410647800
  O          -0.86077431620951     -0.29382083247150      0.77797117047275
  C           0.47647598128129     -0.50286631101825     -3.50838292306013
  H           1.26404735428274      1.00776735701868     -2.19907403466401
  H          -1.35555498009367     -0.51974601086400     -1.69196187387042
  H          -1.47083169971296      1.48293470137934     -0.01954944862571
  H           0.29785164661826      1.30207512930091      0.16091549591937
  H           0.14413835806613     -0.74803279674065      3.00262211795632
  N           0.46877446383036     -1.12980258284205     -4.45373308255915
