16
Coordinates from ORCA-job NEB_reactant E -30.947225344410
  C           1.62141012531895      0.46398550199538     -0.16548066970073
  C           1.15649114042116     -0.48925215625872     -0.97005435831232
  O           2.90692953561372      0.55971881470816      0.23268269215432
  H           0.98580532157269      1.23297451739789      0.24128603739416
  Br         -0.70191435679949     -0.49127145025361     -1.43716235530610
  C           1.49848878174286     -0.06113330410797     -4.54141241957396
  C           2.28332768837306     -0.65137256698010     -3.64248886693692
  C           1.84834896682468     -1.81350912764248     -2.80696216209576
  O           1.92072267498117     -1.52207122268865     -1.41307033444797
  C           1.92746005147728      1.04598938113126     -5.30097123141006
  H           0.49079506414742     -0.40468652191497     -4.73879644428775
  H           3.28004705652444     -0.27541613556032     -3.44967177044558
  H           2.52622918481140     -2.66154093831861     -2.94063876376216
  H           0.82783372894486     -2.12139480905368     -3.06740518328286
  H           3.41575472606951     -0.17612019493315     -0.13556638830725
  N           2.27157030997630      1.94890021247957     -5.91718778167905
