16
Coordinates from ORCA-job NEB_product E -30.950956275840
  C           1.92855213379369     -0.54427845609941     -1.30577981987362
  C           2.92452530214725     -1.58168241397328     -0.82804099622062
  O           2.18720853553029      0.66873404837393     -0.68241296454382
  H           0.92858573255546     -0.93472485113551     -1.03677276888790
  Br          3.96501073171210     -0.99777995753968      0.67521647063763
  C           2.00124515783313     -0.48887165670170     -2.86430949260322
  C           0.94541154513258      0.43198682072509     -3.41646599956860
  C          -0.13083475373867      0.00363629240302     -4.04737866033018
  O           3.07450379913223     -2.66385300654885     -1.28692314196135
  C           3.31456843327343     -0.02931521769960     -3.26489627378700
  H           1.85691888870367     -1.50824509462347     -3.24060593667150
  H           1.12391185561283      1.48894355247942     -3.26706337278747
  H          -0.31305555210036     -1.04482380785846     -4.21827149890883
  H          -0.87230772940592      0.68623098959145     -4.42438053248467
  H           1.50805299154677      1.31637901499021     -0.90004270514672
  N           4.34110292827152      0.36016374361685     -3.57727230686213
