20
Coordinates from ORCA-job NEB_product E -46.243911102850
  C           0.56072042519510     -1.84848173562450      0.20233664685016
  C           2.01792962805336     -2.30841550872065      0.11477552469612
  C           0.07411472253701     -1.28754574648151     -1.13845041203037
  H           0.53165105044318     -1.01833309883072      0.91959133444493
  H           2.41180805095291     -2.38338119798022     -0.91064556568771
  C          -0.36819788565294     -2.94550165549721      0.77480834175897
  C           0.02090661362851     -3.31695508832474      2.18299725901686
  C          -0.79615528479694     -3.19215164762525      3.21024272818672
  O           2.68633256061138     -2.55657653997668      1.07203196898580
  C          -0.37169944789451     -4.20673739189412     -0.09310196084137
  H          -1.40138315451118     -2.57585917202325      0.76834057210521
  H           1.02378941758179     -3.69809398130159      2.30377820729271
  H          -0.49088819244905     -3.46847469407576      4.20342557060970
  H          -1.80042756701667     -2.81497192188814      3.10415016219887
  F           0.58817693207293     -0.04571980485901     -1.31537337273370
  F           0.50354632286902     -2.01870516762972     -2.18722668790298
  H          -1.02248836074282     -1.20828055357488     -1.20945084776442
  F           0.85237361670894     -4.64794643857063     -0.39611191525696
  F          -1.00709792286622     -5.21386060243316      0.52118683344007
  F          -1.01941152472380     -4.01500805268824     -1.25300438736861
