71
Coordinates from ORCA-job A2R E -110.624769604670
  Ru         -0.41321948406251      1.90276184624783     -0.14013892140876
  H          -0.44894267553036      0.51678314574674     -0.81325836666822
  N           1.13869395314225      1.23255130558358      1.07871060997717
  C           2.35199481542585      0.98779799802743      0.54944404443686
  C           0.97944213225593      1.07361706300120      2.40576111071525
  C           3.43134526769538      0.59378466581409      1.32689706306880
  C           2.02130553115344      0.66995716566909      3.22989106810696
  C           3.27241560726192      0.42898683555787      2.69169539222813
  H           4.38614808717104      0.41542280919569      0.85641826567496
  H           1.84215184699808      0.55822000381472      4.28754338800033
  H           4.09756602958477      0.12236198283181      3.31499883754663
  P           1.31755786092411      2.39790636100189     -1.56195443511885
  C           1.24352895835883      1.97728461722612     -3.41263254294296
  C           2.26557868342711      4.03087440223226     -1.31483192365096
  P          -1.58277510646501      1.37204618812409      1.66728134908813
  N          -2.53882160543759      2.84931434770902      2.17695779210290
  N          -2.96625715226929      0.33278785626168      2.31608652288949
  C           2.51418019577070      1.13004051952196     -0.93134787462742
  H           2.20319497896089      0.18667096463324     -1.39763153938938
  H           3.55401083058773      1.33112836720639     -1.20159744208044
  C          -0.35318477243155      1.37504381259101      3.01681550965023
  H          -0.60674964666283      0.66541491359502      3.80998506118357
  H          -0.35843818609520      2.39482329039886      3.43128975996253
  C          -1.79830484308355      2.52071101886648     -1.20408804537595
  O          -2.64037684081750      2.91151249667908     -1.87979618106181
  H          -0.29368599433919      3.28608678881810      0.55103527993539
  C           2.58639335820210      1.58198738677393     -4.03033098390877
  C           0.28867249972258      0.79285067054488     -3.57586326456149
  C           0.63066664608062      3.17072020682865     -4.14759843213261
  H           2.96241736237221      0.65805922443673     -3.59662275299140
  H           2.43999931213261      1.41060626680896     -5.09656464952715
  H           3.34197134526730      2.35078715552887     -3.92280541100750
  H          -0.70679652052262      1.05292686116932     -3.22087023392570
  H           0.22246221560956      0.52225882918050     -4.62923115251061
  H           0.63237991093113     -0.08052789420410     -3.02394261248288
  H          -0.23347958401808      3.54219209194322     -3.59515546415476
  H           1.34776042377821      3.97676204418699     -4.27567333681749
  H           0.29412459408228      2.86449319576064     -5.13723147582828
  C           2.72425053461313      4.04730985058487      0.14727385883903
  C           3.49538687900268      4.23691182284737     -2.19666157767737
  C           1.27409572601584      5.17828020183826     -1.51937408314099
  H           3.52386218434222      3.33102108671869      0.33080594624659
  H           3.09979658952921      5.03811148460946      0.39990351415291
  H           1.89067375366283      3.83189561523711      0.81429162475558
  H           3.23035639926741      4.38136642013185     -3.24007486947598
  H           4.01237361702302      5.13731677103298     -1.86561671826015
  H           4.19457752094723      3.40708902587012     -2.11362998388355
  H           1.04792739801147      5.33657207398122     -2.56947236638313
  H           0.34364741522168      4.96578632496263     -0.99299083211244
  H           1.68785797461323      6.10334520602012     -1.12094670033180
  O          -3.75056298076106     -0.07869220252524      1.50587096209392
  O          -2.99691366689580      0.17539574626284      3.51109291518671
  O          -3.56111350104289      2.95681838139976      1.53094132800516
  O          -2.11632506786013      3.63478586186851      2.99277991069425
  C          -0.90121154537646     -1.71070256636482      0.72565982562928
  O          -0.89685632142601     -0.86818577540852      1.61990056181711
  C           0.37490000553304     -2.12444007880317      0.10808657135575
  C           0.46773961319127     -2.39618559312705     -1.25565587418688
  C           1.69482738300421     -2.69379864701383     -1.81868556910588
  C           2.83248132644323     -2.75213184133204     -1.02855598275720
  C           2.74465500147103     -2.49921249016100      0.33130526476072
  C           1.52620901549811     -2.17202991363546      0.89351357660496
  C          -2.16903929769684     -2.31917594989540      0.22475652021125
  H          -0.40928789806858     -2.32975408052555     -1.88006559113399
  H           1.76559859659998     -2.88513327370539     -2.87940901475221
  H           3.78613614616974     -2.99602374453177     -1.47285927089801
  H           3.62679810660573     -2.54986864932768      0.95161534220708
  H           1.44261798108851     -1.96577860341997      1.95048167303347
  H          -1.99506872775759     -3.14567703643740     -0.45519597626608
  H          -2.74549349032967     -1.53697872026976     -0.27447448245810
  H          -2.77052670580066     -2.64844351219569      1.07044548483634
