71
Coordinates from ORCA-job A2S E -110.617608390180
  Ru         -0.42505672555666      1.75364810946688     -0.34105413741645
  H          -0.05412846636604      0.28779866017228     -0.62211003969786
  N           0.66318969172753      1.55967024655226      1.44166640163743
  C           2.00821747965369      1.51150649736237      1.40987383627272
  C           0.05213501877652      1.53068208700349      2.63809170341965
  C           2.76790154980084      1.49903259009982      2.57264803557735
  C           0.75985048823172      1.51213409009018      3.83095001512271
  C           2.14278490642945      1.51695001615115      3.80540613972975
  H           3.84402087059544      1.47289738184160      2.50089489537135
  H           0.22084320240474      1.50557247527612      4.76472968101471
  H           2.71467653041273      1.52511086382171      4.71958429925628
  P           1.65972365828730      2.28223751307074     -1.19894711500247
  C           2.29583613649998      1.52465635079158     -2.81555026779334
  C           2.24242315425451      4.09126609593131     -1.05450412266177
  P          -2.10557270081153      1.29412882299003      0.99208951839900
  N          -3.59345335850837      2.33925508653952      1.14080849583835
  N          -3.12858851885089     -0.23417191362669      1.22043239286820
  C           2.68109929985751      1.42830324398354      0.07976787580715
  H           2.69314224764706      0.36797433897336     -0.21206332243848
  H           3.71167716326804      1.78807897021235      0.12493781115494
  C          -1.44553183616207      1.54867935047027      2.68748817221639
  H          -1.83151247836202      0.81469308981097      3.40406388784088
  H          -1.79834435103919      2.54825094956153      2.98872386058503
  C          -1.35441053438109      1.90863972637261     -1.93842573384738
  O          -1.90833701128196      2.00840591941385     -2.93899355576826
  H          -0.68184804390299      3.24584550610406     -0.01271503077489
  C           3.80361864218259      1.26910008521200     -2.83095112739332
  C           1.59583779027975      0.17674476322751     -2.99440703114108
  C           1.87166275742415      2.42930156835343     -3.97361313936147
  H           4.07305618233329      0.50219332794275     -2.10916060747533
  H           4.08151382900456      0.90354100273936     -3.81895096844754
  H           4.38762443169052      2.16032939124046     -2.63348865838953
  H           0.51665639118095      0.30419795288510     -3.05911310786941
  H           1.94361087649681     -0.28952917024524     -3.91542378187763
  H           1.81976661076366     -0.49715678613973     -2.17193835592155
  H           0.82676354190850      2.72033183148781     -3.85542786959203
  H           2.48692921114327      3.32262197549917     -4.04100607489395
  H           1.96707914100616      1.89044311219596     -4.91543377678590
  C           2.14209111125008      4.46608188411254      0.42785547866156
  C           3.67511867074814      4.36007123397808     -1.51078373872042
  C           1.26971609948921      4.96942412099476     -1.84357774283594
  H           2.90686225491435      3.97085090367103      1.02364487857789
  H           2.27609682973483      5.54092329101498      0.54131139359239
  H           1.16030657971849      4.21367090786117      0.82618825610181
  H           3.79166199631848      4.23679765050404     -2.58319111804305
  H           3.92627928138175      5.39360404304245     -1.27253039997874
  H           4.38962722823929      3.72151941647006     -0.99475494685624
  H           1.42263525578145      4.88321997326199     -2.91474805608742
  H           0.24132507466552      4.68896031469847     -1.61771977545867
  H           1.40598949016003      6.01427452167082     -1.56868146327001
  O          -3.04181803450544     -1.09256574929377      0.38324952412805
  O          -3.71652831918671     -0.29627702519006      2.27830211894267
  O          -4.48927102021544      1.98930408980019      0.40201880526818
  O          -3.54230994630775      3.34885091372039      1.80035667259180
  C           1.31205852403454     -2.16801927239246      0.09513391179775
  O           2.38405468208888     -1.69721883188450     -0.23648742467934
  C           0.82416872725067     -2.03713117178124      1.49041967158626
  C          -0.51792559714413     -2.19203742689289      1.83151514825149
  C          -0.92023091383275     -2.04742086932817      3.14743828071745
  C           0.01092271221737     -1.77415851633610      4.13746906612780
  C           1.34888711601908     -1.62986758438612      3.80803707078596
  C           1.75039651472402     -1.74745171158618      2.49176331273178
  C           0.43003382647996     -2.90041369087385     -0.87209025404301
  H          -1.24911125487418     -2.41546894454194      1.07085514472387
  H          -1.96305415192699     -2.16250021585419      3.40586043071005
  H          -0.30648013977412     -1.68064360192503      5.16586245697747
  H           2.07802961306339     -1.42911520502597      4.57920361918618
  H           2.78990195667047     -1.63648717095727      2.21846127163822
  H           0.07305513406019     -3.83298369099593     -0.44266227684863
  H           0.97415864847111     -3.09694608919043     -1.79273010135169
  H          -0.43130472775223     -2.27401161920035     -1.10356841248771
