71
Coordinates from ORCA-job A3R E -110.576478518020
  Ru          2.15010766321509      3.24087494379397     -0.19266138412707
  H           0.75101921551753      2.11709949819939     -0.21661319669647
  N           2.56391826064335      2.10556125088636      1.52779040608366
  C           2.90969330339830      0.78441294881419      1.32386170472020
  C           2.29642917649691      2.53901633905623      2.76740354634080
  C           2.82743438729086     -0.11904095113428      2.42966194572499
  C           2.24288473136014      1.70296893109037      3.86076380853112
  C           2.49956139042464      0.33390235917065      3.66982539787600
  H           3.04703979215576     -1.16003156940262      2.24905135743036
  H           2.01504771434903      2.09389025935829      4.83756452121887
  H           2.44204630632310     -0.34193165860745      4.50943486473644
  P           3.56911062643623      1.64827573259747     -1.13303341203228
  C           3.15891446861016      0.90035021915497     -2.82047028513666
  C           5.41927805838819      2.10973065991509     -1.03539816349302
  P           1.28318085837172      4.60992782114213      1.37608096442313
  N           1.86075585889169      6.33707675054691      1.43546065450092
  N          -0.40491870468686      5.04256357270419      1.96606172771150
  C           3.30933169701161      0.37645703745897      0.06304924050058
  H           0.69199783911431     -0.11742571699094      0.66969233156247
  H           3.59446932231394     -0.64901025392137     -0.11095386778139
  C           2.07697413399645      4.02083263943513      2.92534790396950
  H           1.47521603461857      4.26005747875408      3.80820266471510
  H           3.05333513281029      4.52009064417303      2.99055377840639
  C           1.77666538954392      4.18646318372791     -1.74266648921519
  O           1.59208438088497      4.78933993992095     -2.70135808904262
  H           3.36719859927484      4.11802732137991     -0.01432449732385
  C           3.63051164190607     -0.54461107936800     -2.97241468373342
  C           1.63054466965773      0.91091522689536     -2.90119283190537
  C           3.70960678641778      1.77867369928985     -3.94129718756710
  H           3.13105783555760     -1.18816785498229     -2.25250848351714
  H           3.37010134784233     -0.89742810378137     -3.96985388629581
  H           4.70343777077222     -0.64687475293757     -2.84993359632675
  H           1.24206394718477      1.93083959740500     -2.85481721662941
  H           1.30250959579489      0.47492573373429     -3.84381833767913
  H           1.19760127702255      0.32246282211836     -2.09466273767308
  H           3.49081963789604      2.82750827840937     -3.74218319412870
  H           4.78251276132206      1.65414336851557     -4.06004580401339
  H           3.23755298824298      1.50644213197499     -4.88477462769360
  C           5.70519623180902      2.34518786077746      0.44967205280202
  C           6.32082134849772      0.97800403825509     -1.52266685411027
  C           5.70066099197850      3.40280613810919     -1.79745225126084
  H           5.55332001960310      1.43496549275009      1.02746923591711
  H           6.73783711509376      2.66379821183830      0.58010901433535
  H           5.05702694930392      3.12732597172203      0.84564660743263
  H           6.26609196768361      0.85180854562239     -2.60051582371039
  H           7.35536814922467      1.20839738073045     -1.26994325787131
  H           6.05709168491821      0.04069693491977     -1.03520573522324
  H           5.71144134955927      3.25012455497480     -2.87147098988237
  H           4.94610610508644      4.15334391071357     -1.55756712805031
  H           6.67400963234069      3.79350731824364     -1.50509291790233
  O          -1.13152238083752      5.39723807785518      1.06358559679877
  O          -0.70466279912667      4.83860757429197      3.11870059961762
  O           1.08051698580814      7.23314070084611      1.63722099209497
  O           3.05686084653584      6.41953362292199      1.28471858379870
  C          -0.19017472810528      1.45316339646031     -0.07646704827063
  O           0.18293960608978      0.10709959074319     -0.12063225260472
  C          -1.11699138920292      1.77681009555325     -1.22493427540018
  C          -1.31881362200534      3.10121386151815     -1.59299946626492
  C          -2.18667670216041      3.41474300569283     -2.62120918355016
  C          -2.85856172077520      2.40610685684212     -3.29283022678559
  C          -2.66192778420060      1.08632710104810     -2.92733462002767
  C          -1.79679456903066      0.77002321225677     -1.89435305719685
  C          -0.87372364431774      1.78914608093295      1.25204748691986
  H          -0.79953745363294      3.89985308050272     -1.07225658366566
  H          -2.33471319404328      4.44727308245738     -2.89749256964191
  H          -3.53328340421783      2.65062292991075     -4.09942930409236
  H          -3.18407812567560      0.29637822177048     -3.44638387117820
  H          -1.63746265844544     -0.25664929916356     -1.60491733931653
  H          -1.64478365053391      1.04130375338303      1.43517028921855
  H          -1.36081592015331      2.75887784666730      1.19983730937880
  H          -0.17225113343983      1.77084240035510      2.08885214125147
