71
Coordinates from ORCA-job A3S E -110.577723279420
  Ru          1.84188852376459      3.21496038947354     -0.30398868970030
  H           0.46507839246816      2.09136839318883     -0.40755759522806
  N           2.35000603455052      2.24390894916193      1.49608438659900
  C           2.78554840085148      0.94564233908333      1.38794362471050
  C           2.16270835737159      2.78001208723181      2.71027075413223
  C           2.94056625188800      0.16750428079712      2.56925447923016
  C           2.34385112359003      2.06858388827342      3.87660429163673
  C           2.72984810943803      0.72466075749867      3.79421001319378
  H           3.24990286985027     -0.86086340335831      2.46316723752992
  H           2.18791749419687      2.54426067077375      4.82988732333929
  H           2.86423935799267      0.14712873386571      4.69607957181725
  P           3.28936803563136      1.60116113741545     -1.16476829313386
  C           2.91410313650229      0.75684764765973     -2.81977174897753
  C           5.14176583598791      2.08571505765806     -1.08983170397293
  P           1.00529061974644      4.69103996176963      1.18573299234236
  N           1.89239616576121      6.26625523167650      0.84030746492200
  N          -0.43600991935631      5.72121873581629      1.74593267208674
  C           3.02331574433671      0.40792360781333      0.11637911881597
  H           1.08737054160422     -0.03755485589616      0.03014833302640
  H           3.45215352592859     -0.58264501929259      0.04515005986358
  C           1.75821022914218      4.22744215679346      2.78267367746909
  H           1.08028325546638      4.41314118433632      3.62073567084261
  H           2.64962247890664      4.86250781090372      2.90855231496982
  C           1.40245315291714      4.07559608736041     -1.89044386188187
  O           1.18557233193696      4.64171498053027     -2.86199990359940
  H           3.05773352887110      4.11597927093851     -0.20428765869046
  C           3.35053779270433     -0.70680495673926     -2.83682129809957
  C           1.39561871281710      0.80553170894332     -3.01009190636172
  C           3.54660734020534      1.53805873146827     -3.96985199372642
  H           2.79708935482185     -1.28016637289604     -2.09678004863993
  H           3.13512937679744     -1.13091552085256     -3.81692968099384
  H           4.41242805108895     -0.82270330543497     -2.64655833394949
  H           1.03463676326384      1.83624527360708     -2.98562082864365
  H           1.13738508249876      0.38490736618776     -3.98144334069021
  H           0.88421401849874      0.21819657054605     -2.25161304153853
  H           3.33022410112203      2.60081577673216     -3.86610366303373
  H           4.62168227121127      1.39374856793351     -4.01797587601942
  H           3.12695373703827      1.19730947808414     -4.91593783028585
  C           5.42866061714629      2.42276151631708      0.37620609543471
  C           6.05824448669143      0.93146273072503     -1.49097160127065
  C           5.41734424975271      3.33072005033279     -1.93190292109309
  H           5.29298316258503      1.55364286966648      1.01747212778556
  H           6.45845668927587      2.76058738959535      0.47894796743847
  H           4.77575520576774      3.22317156814242      0.72596986325099
  H           6.00313402212129      0.71337653529897     -2.55363095062195
  H           7.08985829903507      1.19768759807707     -1.26283379881040
  H           5.81240138321360      0.03283090905289     -0.92724441024803
  H           5.48699371191633      3.10459342687342     -2.99022395296884
  H           4.62766906292371      4.06846112377426     -1.78247511738257
  H           6.36132697053766      3.77757431736272     -1.62407055453120
  O          -1.27161354125234      5.93122502552352      0.90523896733123
  O          -0.38692417847927      6.15771533021794      2.86974936463146
  O           1.48102341742263      6.81428571863918     -0.15409212788217
  O           2.80471159318905      6.61178045909895      1.54626028430856
  C          -0.32924495585668      1.31709126446506     -0.04202091252518
  O           0.14264484447780      0.02506892511101     -0.25129573405107
  C          -0.63359196412898      1.60080493152323      1.41732816071160
  C          -1.22295490891466      2.80789323997625      1.78877286283644
  C          -1.52280783367685      3.06114927449929      3.11766252735395
  C          -1.22220957786733      2.12108464413540      4.08978679571182
  C          -0.65517728282611      0.91431766919335      3.72301688299247
  C          -0.37271757148304      0.65004472729382      2.39354658313762
  C          -1.57277917610862      1.50664204223443     -0.91235104454680
  H          -1.52713695669833      3.50960294041951      1.02189339203079
  H          -2.00445592602154      3.98699685298233      3.39688101844224
  H          -1.44702743438516      2.32506417602493      5.12556353763752
  H          -0.43700376058770      0.16735178684894      4.47115746349126
  H           0.04241437034121     -0.30612108252797      2.11252666925885
  H          -2.36766580656453      0.87030640469789     -0.52919213409779
  H          -1.35194557047032      1.20631534674975     -1.93317427020625
  H          -1.90690582248891      2.53956688862261     -0.91293772291015
