71
Coordinates from ORCA-job TSA2S_3S E -110.571898534430
  Ru         -1.16914667368793      0.18556997102939     -0.47889316066739
  H          -0.57408539133014     -1.42101512370371     -0.59831356064091
  N          -0.09550055907988      0.32661643794529      1.33722023739530
  C           1.25859585783935      0.29392392184745      1.25381342483365
  C          -0.68530471293422      0.37704629777539      2.53687965259618
  C           2.03642568522651      0.29734274906023      2.42591433861671
  C           0.03873197224683      0.39344013042439      3.71610572161871
  C           1.42810173656926      0.35202929955672      3.65448296933446
  H           3.11069036326061      0.25912938797382      2.33577633311740
  H          -0.47587408233864      0.43900077702792      4.66132373443832
  H           2.01317649065588      0.36380677631323      4.56102315767135
  P           0.85562050524616      0.97374883712828     -1.32740312535562
  C           1.53915425887058      0.35805288287811     -2.98334009044039
  C           1.15847636322860      2.85298124951990     -1.15551905033805
  P          -2.83919708480827     -0.14784313139372      0.98105007569577
  N          -4.09346674382734      1.15511603217363      0.65342011657087
  N          -4.24449828766417     -1.24220592366179      1.54510956563909
  C           1.85614163940603      0.17041404256716     -0.05462617817835
  H           1.68372153762016     -1.19288821988929     -0.30007462673764
  H           2.92851635110941      0.34796833994089     -0.08670557878936
  C          -2.18501808096725      0.43379263243196      2.58724041096853
  H          -2.57804711334348     -0.14968237811743      3.42522919471541
  H          -2.52168600141502      1.47674963788868      2.70212286144044
  C          -2.12128396616591      0.09121815656834     -2.07037544966099
  O          -2.70866077148105      0.09004377418333     -3.05306901231330
  H          -1.61152562246396      1.64771897004125     -0.33148609295652
  C           3.05718413885498      0.18526379232337     -2.95833783929805
  C           0.91124811090561     -1.01314230800994     -3.24197577305490
  C           1.09994977680626      1.28670773538826     -4.11494605196245
  H           3.33840059579022     -0.59657150329943     -2.25720838256900
  H           3.39294129557071     -0.11883041971194     -3.94897900268109
  H           3.57764319241307      1.10036533979391     -2.69591015838847
  H          -0.17772024822472     -0.94598641917096     -3.26673735740981
  H           1.24636336250892     -1.38920287007946     -4.20776611381390
  H           1.21981504437308     -1.72863658000364     -2.48316683168730
  H           0.03346260700506      1.49654839256896     -4.03616340966924
  H           1.65165016633826      2.22217998546211     -4.11734084302784
  H           1.27776117415117      0.79903296559301     -5.07280640435706
  C           0.93610931637958      3.20862342587029      0.31723406084975
  C           2.58181235439405      3.26567384135450     -1.52537386329886
  C           0.12860417868681      3.61712131680858     -1.98856694062742
  H           1.68339354037918      2.74628776914718      0.95970277158065
  H           1.00847968635760      4.28775109333605      0.44431284644452
  H          -0.05651516886603      2.90046502225207      0.64579948252125
  H           2.77867838786543      3.15457154636444     -2.58736213118225
  H           2.72344834325599      4.31626218193104     -1.27337643021167
  H           3.31323335938580      2.68730859572610     -0.96321543925636
  H           0.37769833952382      3.62436417784212     -3.04387066989000
  H          -0.85872448094550      3.17022396438302     -1.86484017487096
  H           0.07737267042760      4.65110184787316     -1.65148193487055
  O          -4.68825093894504     -1.97896154994181      0.70678454467129
  O          -4.65381782709796     -1.05787950167778      2.66372165746496
  O          -4.75316047190738      0.91474051608776     -0.32944982080507
  O          -4.13908897683020      2.13898202012151      1.34653426546248
  C           0.00584148638909     -2.47942351754237     -0.26542910241428
  O           1.31099181098732     -2.36938751290215     -0.52145837155211
  C          -0.33342739258011     -2.65897962017591      1.20569587578110
  C          -1.64982062347726     -2.82431027457341      1.62944062616117
  C          -1.93539694948978     -3.00235722975202      2.97363297300662
  C          -0.91208145601326     -3.00249556020398      3.90792187235344
  C           0.39876681465851     -2.86151770042942      3.48905282048218
  C           0.68720370036747     -2.70060174417132      2.14506392495477
  C          -0.65329392709418     -3.56695151723399     -1.12188515754631
  H          -2.43838320099847     -2.90406101103901      0.89151810849014
  H          -2.95573009330834     -3.15514724737572      3.29570177094333
  H          -1.13825313024788     -3.13237035993647      4.95563603369302
  H           1.20352938610166     -2.88443823104099      4.20889904377963
  H           1.70952915780964     -2.61780612931328      1.80681542852199
  H          -0.31334336419967     -4.53664430620695     -0.76216412144967
  H          -0.34076385642444     -3.45477162604909     -2.15670552597733
  H          -1.73739756080878     -3.52517631789577     -1.07385612386401
