16
Coordinates from ORCA-job NEB_product E -22.210542634220
  C           1.79637247258745     -0.73901546377138      1.68024970627571
  C           1.08588419027956      0.43363505383156      1.03310026315807
  N           1.64563514056023     -1.98699265699937      0.95881105699109
  H           2.86735246645441     -0.49331916666212      1.71025484507663
  H           1.18803818014559      1.38602582169625      1.58985736495371
  C           1.29978649725690     -0.88139584722570      3.13657080563101
  C          -0.19059263775405     -1.00651760894377      3.20527213882001
  C          -0.98837469121155     -0.09037574040434      3.72008092989783
  O           0.46017118282136      0.36683888070310      0.01237900691915
  H           1.76449038330830     -1.77787563473816      3.55064321081426
  H           1.62715872106866     -0.01303102845326      3.71032144599493
  H          -0.60251683441200     -1.91749428034701      2.79291613665456
  H          -0.60484943303340      0.82350535874301      4.14462411300439
  H          -2.05729405951276     -0.21348588010108      3.74671324886882
  H           2.04575655755178     -1.89958644654477      0.03027186160842
  H           0.65848186388954     -2.18871536078298      0.83203386533140
