24
Coordinates from ORCA-job NEB E -35.870959876320
  C           0.68754328047420      0.33615403498817      0.19205461855584
  C          -0.27987608426434     -0.63450259750319     -0.29230542348991
  O           0.17227571350078      1.63610298941067      0.40274889552515
  H           1.21200922505936     -0.02122679781193      1.08894803350453
  C          -0.38050584263108     -2.02687013695324      0.23226647301417
  C           1.71986824636337      0.52187487417117     -1.00537276854662
  C           0.98389391167145      0.93615322781195     -2.15558272540280
  C          -0.47931916486476      0.66189402809502     -2.23570577043468
  O          -0.96379922352704     -0.36684398520327     -1.41384374422437
  Br          3.15047719395938      1.91668423949446     -0.43128025434820
  H           2.34437656873768     -0.36598611104486     -1.05016369323422
  H           1.28937949609917      1.82294714670874     -2.68661169550395
  H          -0.75848445579683      0.34365987937686     -3.24683095259237
  H          -1.02439876399660      1.59294668575159     -2.02613776670735
  C          -0.59313507863431      1.74877044121376      1.57322633206002
  H          -0.00415665952170      1.48082897247708      2.45859408740198
  H          -1.48462060146597      1.11087776143165      1.53251351529679
  H          -0.89038906387749      2.79300210812234      1.64046934016249
  C          -0.96933042010708     -2.08844340245315      1.64526470185666
  H           0.62030218368213     -2.47420259317167      0.24869479873374
  H          -1.00417073233611     -2.60277325990316     -0.45248513309554
  H          -0.37055986413944     -1.50495359567155      2.34002809069758
  H          -0.99360582615346     -3.11808478877160      1.99170603799522
  H          -1.98377403823132     -1.69800912056584      1.64980500277583
