24
Coordinates from ORCA-job NEB_product E -35.924126951430
  C           2.51110948618547      0.17876969422695     -0.84615762918845
  C           1.23872453558164     -0.67917722629162     -0.71494883812435
  O           2.31480643142119      1.51171089072412     -0.45701244764962
  H           3.32152864301906     -0.28110263535064     -0.25153779304158
  C           1.50195788581505     -2.15106362436640     -0.49292551731405
  C           2.89702730582364      0.18566903417016     -2.32848323693046
  C           1.85850757936001      0.82760974435102     -3.17622502615886
  C           1.34907720551223      0.25808226461587     -4.25249260174331
  O           0.14110146733873     -0.19678083797089     -0.78314132627756
  Br          4.58365715760757      1.20097532089790     -2.50115349048458
  H           3.13844054772304     -0.82228431123107     -2.67229868980890
  H           1.54589609572180      1.80626107288409     -2.84370925990342
  H           1.66325784028151     -0.71844427238420     -4.58642227560308
  H           0.59485186422115      0.74619569086474     -4.84365923449105
  C           2.11427913503456      1.68927046549538      0.92232088971581
  H           2.95402448820838      1.27940729891734      1.49789973764746
  H           1.18360918560291      1.22076034648836      1.25828580799015
  H           2.05635600734285      2.76374282158537      1.08019196632729
  C           0.26653279809949     -2.99942643238488     -0.76329542207566
  H           1.81177922530136     -2.26264951403721      0.55113461679119
  H           2.34227514994331     -2.46933066842537     -1.11362872314487
  H          -0.56446359047657     -2.65037219993508     -0.15635373157724
  H           0.46200705499386     -4.04254182629839     -0.52983512898078
  H          -0.02254349966223     -2.92048109654557     -1.80835264597409
