24
Coordinates from ORCA-job NEB_reactant E -35.916900726080
  C           1.34574877154049     -0.11297782703297     -0.16716046513020
  C           1.42879502135262     -1.18725527869561     -0.95177260776111
  O           1.26349144520158      1.20343801754768     -0.57883479784140
  H           1.32146011345175     -0.26028791371115      0.90569104441722
  C           1.41479512392346     -2.57189625890853     -0.35715387415134
  C           3.64996973227544      0.79048722901915     -4.13251578949409
  C           2.96544129878291      0.47990613489405     -3.04895385032387
  C           1.57394686570770     -0.07931550562424     -3.08280732471075
  O           1.45847243455583     -1.25996553524040     -2.32009339431661
  Br          5.39384103937356      1.52162292111736     -4.06132169706644
  H           3.28092958700372      0.67755306093963     -5.13934829791267
  H           3.39146655329268      0.61114533555429     -2.06513189022943
  H           1.30039572386922     -0.36855524056278     -4.10172829958188
  H           0.87366127032539      0.68273276834089     -2.72059093327094
  C           1.71419353104305      2.13628999868761      0.37193784419776
  H           2.78903484297863      2.03215531563236      0.55950274183342
  H           1.17719614389503      2.02618619656633      1.32079066315939
  H           1.51492364259187      3.12175004208066     -0.04527021098096
  C           0.00909426874579     -3.17148636247721     -0.39588392753203
  H           1.77436518432639     -2.53562605478762      0.67107528312289
  H           2.08774927639404     -3.19904564362974     -0.94350714116959
  H          -0.67648144874146     -2.56613194518038      0.19231375456639
  H           0.01734088198489     -4.18130073137515      0.00702745775040
  H          -0.35143130387454     -3.20762272315422     -1.42026428757418
