20
Coordinates from ORCA-job NEB E -50.246813799430
  C           0.86165257351977      0.34542955623528     -0.39091773096743
  C          -0.01629564079068      0.97356559124347      0.52320704354781
  C           0.73124742457558      0.73782175500205     -1.85848051731250
  H           1.91562660800268      0.35105627947885     -0.11850440781647
  C           0.46426750935505      1.12776590094096      1.95736041423385
  C           0.33077342087696     -1.43872419437067     -0.24913730152030
  C          -1.05587008836766     -1.38814244836336     -0.46910940371186
  C          -1.85494993258171     -0.59827907098638      0.41687596017159
  O          -1.30330302740247      0.89302064847401      0.32896007394949
  Cl          1.28896356974517     -2.37166896443285     -1.37430877348312
  H           0.68682942943515     -1.60851708711358      0.76283060840622
  H          -1.43340379861778     -1.60376898930100     -1.45668817947350
  H          -1.74119764820681     -0.80967053338298      1.47826330592026
  H          -2.89433649745389     -0.48766502620706      0.12968877027591
  F           1.75550540202335      0.23960991001340     -2.58229397554423
  F          -0.39982805845553      0.31629445532985     -2.45247873143249
  H           0.76689018748623      1.83602364508300     -1.95672502015763
  F          -0.31466576716907      1.93385230571773      2.67404924852092
  F           0.49812133370177     -0.05753287608042      2.62279938501309
  F           1.71397300032387      1.60952914271969      2.01460923138042
