20
Coordinates from ORCA-job NEB_product E -50.273457875350
  C           1.63755579036778     -1.71594226686484      0.16278287338309
  C           0.85419983285255     -0.82978280315294      1.10435910463264
  C           1.39707555293877     -1.27425099349527     -1.29280098035706
  H           2.71193451518358     -1.62482494145419      0.35242538340160
  C           1.68509624708830     -0.40807049810811      2.35814720050657
  C           1.21854658943912     -3.18496663243088      0.47346096893702
  C          -0.12533862637607     -3.55346278413227     -0.05963740901647
  C          -1.18361160536276     -3.70585338592774      0.71476294658120
  O          -0.27935616958280     -0.48302172697166      0.98191160016769
  Cl          2.46678028827259     -4.28946538577160     -0.20007287448479
  H           1.25507232135616     -3.32783665339174      1.55738957510303
  H          -0.18763553535570     -3.69768448699081     -1.12761258898412
  H          -1.13722603033248     -3.56970597971597      1.78295864908886
  H          -2.14266036232188     -3.96711736376185      0.30523520894075
  F           2.02872290721839     -2.09094374333030     -2.15791874553033
  F           0.09615611536332     -1.28560910527364     -1.63558663196932
  H           1.77755536597330     -0.25200980914918     -1.45855920578242
  F           0.98793403927179      0.34096246145941      3.20039849621694
  F           2.12584111499410     -1.48183190586631      3.03013229994348
  F           2.76905764901192      0.28891800432990      1.98362412922165
