20
Coordinates from ORCA-job NEB_reactant E -50.278009507150
  C           1.87972009937079      0.02574019120520      0.07740433285634
  C           1.26226843775646     -0.88985193753197      0.83686672791275
  C           2.04368379634847     -0.17504882477658     -1.40041842735301
  H           2.28555136536486      0.92285263732807      0.50668244008104
  C           1.12229205910585     -0.63389754661765      2.33051917100672
  C          -0.03698327811180     -5.35074847223120      0.48617681501382
  C          -0.28197789652142     -4.09587284857480      0.14836407016929
  C          -0.00449609699673     -2.93923354852589      1.05719723347989
  O           0.79422405634401     -2.02255748897546      0.31064351897218
  Cl         -0.37748639968629     -6.67157080461146     -0.54685304613365
  H           0.37421103005763     -5.64059152963501      1.44196816169888
  H          -0.67975081242814     -3.83791754059426     -0.82099067932814
  H           0.51536203206704     -3.27696732283621      1.95953084522610
  H          -0.95110726928369     -2.45811434291929      1.33855060870790
  F           2.81763493199430     -1.25571536498653     -1.67290896003973
  F           0.85218439121217     -0.40876067693136     -2.00526686597045
  H           2.50236036801513      0.69506635678326     -1.89383579280172
  F          -0.15938977312850     -0.61628958245828      2.73213775940328
  F           1.73857232985878     -1.57269522587792      3.06691203871101
  F           1.64732662866108      0.53767387276736      2.69352004838750
