22
Coordinates from ORCA-job NEB E -37.459413347570
  C          -0.21940818500898      1.97842862433605      0.59570847314131
  C          -0.75925839102684      0.82662609519836      0.99342943112496
  O          -0.39286777906831      2.45538476254296     -0.67713488751127
  H           0.38737508897917      2.54605355244165      1.28427321856691
  O          -0.43668283738553      0.34023851354034      2.23952150208272
  C           1.31228480058380     -0.98792752477111     -1.27623208321768
  C           0.03532181451442     -0.66460880202570     -1.38912842905634
  C          -1.00640677198327     -1.05966101480150     -0.38963987387939
  O          -1.60685567341840      0.08587868603856      0.22014279632347
  C           2.38550061504038     -0.58439660750651     -2.23530111177293
  H           1.67110114621306     -1.59602142391311     -0.45614800164558
  H          -0.30693146891628     -0.03297404993169     -2.19540257104881
  H          -0.57238729170010     -1.71461945642839      0.37778697027061
  H          -1.83865548989842     -1.57271192426994     -0.87940717136230
  H           0.02315691508592      3.31827923357291     -0.75660278694956
  C          -1.45684068930035     -0.37680890846651      2.91824680585376
  H          -1.53484014496015      0.03143461763542      3.92703076125064
  H          -1.18619111174200     -1.43500944391906      2.97834582397184
  H          -2.41509585271112     -0.27965810423205      2.40676830475351
  F           1.90211471195119      0.15449785012723     -3.28333673823369
  H           2.87443467453074     -1.46631766246925     -2.66961654830583
  H           3.14113192022110      0.03389298730133     -1.73330388435635
