22
Coordinates from ORCA-job NEB_product E -37.495471739380
  C           3.32855342837135     -0.94829157229772     -0.36360418417589
  C           2.23156510501730     -1.26451741489970      0.65161813897666
  O           2.95565718826617      0.20147569484911     -1.05996877745947
  H           4.26854778840979     -0.78871359888333      0.19368769905625
  O           2.74370691627499     -1.97753837276029      1.66571863023670
  C           3.49513181114571     -2.21006002045502     -1.25183149265862
  C           2.24919943510400     -2.44707211712161     -2.05623369523016
  C           1.58024973065809     -3.58325066321296     -2.05273805289447
  O           1.07738878797356     -0.96762071015659      0.55857503894582
  C           4.72512916595869     -2.09244232998946     -2.15859020163705
  H           3.68137585945463     -3.06115316567216     -0.58856183230846
  H           1.91634141930105     -1.60672663578626     -2.64802676113645
  H           1.89381113712371     -4.42830992033685     -1.46025640185939
  H           0.68851466930840     -3.71631164429080     -2.63949722655243
  H           3.49031255111233      0.27802102654534     -1.86051875879505
  C           1.81380723911897     -2.38591811267881      2.66313270768937
  H           2.37933736584208     -2.97000984579092      3.38419589028243
  H           1.02016725296359     -2.98652968747469      2.21477947574324
  H           1.36638634116639     -1.51275500962915      3.14091127685461
  F           4.62450756812055     -1.02177376721034     -3.01703816528482
  H           4.82788739920161     -2.98434861194146     -2.78385340233082
  H           5.63652184010704     -1.93385352080631     -1.57219990546202
