22
Coordinates from ORCA-job NEB E -46.861257538310
  C           0.36844443286816     -2.03784183070500      0.19161856151748
  C           0.33160904004044     -0.79708120940312     -0.53321732458564
  O           1.50511026277366     -2.55406510857816      0.56833943576555
  H          -0.52685965695014     -2.39829073991416      0.71568052146786
  N           0.75855892669962     -1.11640207353216     -1.76041467850117
  C          -0.76556664455830      2.91792225048031      0.80084519868958
  C          -1.13058997071541      2.52286759447550     -0.41346759911974
  C          -0.82292152702357      1.19896440112740     -1.00329887346078
  O          -0.13636281465824      0.38376847226490     -0.05571563005359
  N          -1.11027570756527      4.21891213003668      1.28946276825889
  H          -0.20181999832332      2.31780620250892      1.49653727901828
  H          -1.69373333100082      3.19951043128170     -1.04421286843279
  H          -0.20656614504108      1.33590796130583     -1.90486644046661
  H          -1.75806217119310      0.70944896942304     -1.31445814698195
  C           1.51602117219933     -3.88636300241631      1.04477927060709
  H           0.64509195220728     -4.09263928475755      1.67257936372000
  H           2.43507662450594     -4.00766036616455      1.61425579510330
  H           1.51858870011034     -4.56403600457433      0.18688850135727
  O           1.04143896251584     -0.38523897743380     -2.69636987996875
  O           0.71739264470345     -2.41398967919824     -1.83309615395697
  O          -0.73208322577434      4.49469964081622      2.40750355503496
  O          -1.75249152582048      4.95380022295689      0.57062734498775
