22
Coordinates from ORCA-job NEB_product E -46.905814215900
  C           0.96241266134046      1.42510114015886      0.80632956753907
  C           1.73877188199422      1.05341444530421     -0.43899978680285
  O           1.79735722298059      1.56125037064183      1.91988707622238
  H           0.17511550644463      0.66807317608681      0.97600283759643
  N           0.82895917141738      0.53787434831319     -1.57398627733777
  C           0.29606826459057      2.79797473075957      0.57750322293330
  C          -0.66757805084940      2.81944652987721     -0.57217241759700
  C          -0.53773072361803      3.61669277969321     -1.61638953724136
  O           2.90236092878271      1.11402150105280     -0.63825912435653
  N          -0.49787143926865      3.11197084019553      1.81754432267929
  H           1.06257107698733      3.57347947454384      0.49004417185756
  H          -1.50091586884855      2.13518694211162     -0.47976757375530
  H           0.28807392980725      4.30172354525823     -1.71439424248456
  H          -1.25206143873086      3.60628028462932     -2.42017483539412
  C           2.24244868314694      0.34148636946901      2.47840996880739
  H           2.80189104496729      0.61509370627286      3.36928731009232
  H           2.89624493450624     -0.20161860018651      1.79019292652170
  H           1.39343933585996     -0.29173755900939      2.75612652516755
  O           1.17609499577212      0.81795263261105     -2.68772600372499
  O          -0.14684954008060     -0.09007326785709     -1.24161587711817
  O          -1.17475946343984      2.22757875091643      2.26676490478256
  O          -0.42114311376175      4.23652785915739      2.22519284161307
