27
Coordinates from ORCA-job NEB E -35.480943241430
  C          -0.51968346769444      0.60260390978911      0.91475309300939
  C          -1.24411531506876     -0.55105290351400      0.68274522570345
  C          -1.15450629671569      1.94893348182054      0.70036262937490
  H           0.17141095568273      0.54547872420625      1.74556248858793
  O          -0.81244243595143     -1.66427186869293      1.35850036373814
  C           0.71563990044536      0.44062036839811     -0.82550598527057
  C           0.15428381047592     -0.57798711527236     -1.56781421678316
  C          -1.23640112629877     -0.52358314991568     -1.83203220876524
  O          -2.01154434714654     -0.70957476736110     -0.33869766828936
  C           2.12397531453484      0.31200709357222     -0.30759308982538
  H           0.41164722719263      1.44753113591993     -1.07440871099400
  H           0.61009409263519     -1.55989518944167     -1.50842486643072
  H          -1.68177224837714     -1.34147639919001     -2.38412880355358
  H          -1.63919552303511      0.44327601989246     -2.11279025073605
  H          -1.83005117567726      1.92872245329895     -0.15060247867863
  H          -0.40639633534007      2.72460875192624      0.55276728225893
  H          -1.73561526295903      2.21395039599520      1.58529221897544
  C          -1.36914535907355     -2.89940870240349      0.95781565812039
  H          -1.00959646653810     -3.63497310438665      1.67414573838458
  H          -1.04462034496293     -3.17195719256697     -0.04974368289750
  H          -2.46136918900573     -2.85776219634240      0.97668156673218
  C           2.65480250012115      1.59722091311385      0.31532431981669
  H           2.77159337664584      0.02993925739871     -1.14379231436407
  H           2.16897620982054     -0.50085537717369      0.42081790119417
  H           2.63473755383345      2.40844587512631     -0.40974084633816
  H           3.68220955586054      1.46093357331695      0.64554748221874
  H           2.05708439659636      1.88852601248609      1.17495915481145
