16
Coordinates from ORCA-job NEB E -36.713804063890
  C           0.48119902563020     -0.97932394313648     -0.52034347422918
  C          -0.79849868891461     -0.18931562019332     -0.61475632995723
  F           0.30395104375480     -2.02377235986819      0.35285740923896
  H           0.79543386181030     -1.39630564023401     -1.48103241685932
  N          -1.43228372737203     -0.00782425545298     -1.85334492330360
  C           1.39982276252050      0.08701245314778      0.05130467950743
  C           0.54397226212066      0.98352537947604      0.79631161820900
  C          -0.70866334253425      0.51553937080314      1.46439457726937
  O          -1.55423624232847     -0.03326814919106      0.48782383398245
  I           3.05539360122137     -0.71707988826035      1.35947362229513
  H           1.96429694049377      0.58084239810005     -0.73392572165939
  H           1.00342710307733      1.87014926051207      1.21622894302345
  H          -1.26334402041987      1.33889206130751      1.92282348954834
  H          -0.46778496270176     -0.20928603671748      2.25925733335018
  O          -2.55978213427508      0.44776276422895     -1.85870561485777
  O          -0.76290348208287     -0.26754779452168     -2.84836702555781
