16
Coordinates from ORCA-job NEB_reactant E -36.751959840130
  C           1.84494330404409      0.15520427869142     -0.12797754550062
  C           1.48824829123193      1.39702238334087     -0.47315659712123
  F           2.35130141213981     -0.17837807728469      1.06398085640316
  H           1.75465158807809     -0.67719211845959     -0.80875796319395
  N           0.95188910466971      1.57668635527924     -1.83054663912479
  C           4.32345519335868      3.72914562010068      1.55686920452751
  C           3.58619421640922      2.64839354276860      1.38823293900800
  C           2.08659739013043      2.68503186412277      1.45924669730017
  O           1.48973045377932      2.56778473668162      0.16974031747378
  I           6.41790221567618      3.71432981794572      1.45939161578206
  H           3.90992285567677      4.70042550340040      1.77146072432011
  H           4.03707004548524      1.69123455428290      1.17085161002008
  H           1.74087307449845      3.65590853773651      1.82014676142188
  H           1.71776225902983      1.89690571925096      2.12459083577373
  O           0.65657982920106      2.69653504124942     -2.14941207221466
  O           0.84967876659119      0.58826224089316     -2.51916074487523
