17
Coordinates from ORCA-job NEB E -35.936787901840
  C           0.47480999580343     -1.01312910475593      0.98658696711531
  C          -0.87076916958285     -1.12557237712117      1.28597268048962
  H           1.04093754700433     -0.30872298862240      1.58365360756818
  H           1.01677324309415     -1.90897543751145      0.71756190770454
  I          -1.91452727132833     -2.85205782827635      0.50844211059087
  C           0.31304501258017      0.09480342891938     -0.63840822985629
  C          -0.48092500101961      1.15028827860736     -0.20101493559083
  C          -1.79500681928110      0.84194274042093      0.27580055593437
  O          -1.59243603627420     -0.09943807526285      1.53975888520347
  C           1.70302639295465      0.38118529397934     -1.11946002263129
  H          -0.16221213383036     -0.67368910196646     -1.24603606011861
  H          -0.00479551494018      2.04431623008362      0.17677945631633
  H          -2.40263899445890      0.21441155656736     -0.37632496460764
  H          -2.35729389398068      1.67354505985723      0.68327934691573
  Br          1.59020383356621      1.37328727962680     -2.82664902419510
  Br          2.73655423111781      1.46400227851347      0.12660882778167
  Br          2.70525457857546     -1.25619723305889     -1.47655110862032
