26
Coordinates from ORCA-job NEB_reactant E -39.888369283500
  C           1.39427702475068     -0.24846731022953     -0.01140098913891
  C           1.37123502005292     -0.68331148063243     -1.26805769225740
  C           1.68372975753315      1.15526998857489      0.39517534379684
  H           1.19156603716729     -0.95386499494213      0.78183291683621
  C           1.05266043394148     -2.14556124612629     -1.55606134665699
  C           3.82505917603075     -1.46109908406452     -4.28208020861208
  C           3.63672443834884     -0.98434337665267     -3.06290529701160
  C           2.92798794207248      0.30278536764745     -2.77112943003059
  O           1.56452912500147      0.11381508364101     -2.36375398633278
  C           4.49368307355498     -2.75926562823650     -4.59248385438491
  H           3.49179374467300     -0.89094004362782     -5.14005500806190
  H           3.95400624402091     -1.55310909097275     -2.19812140331585
  H           2.84713005260203      0.91753365299170     -3.66963501590175
  H           3.46336896937763      0.86013431121249     -1.98948832106543
  H           1.70382749827990      1.80926925010497     -0.47214546846822
  H           2.64298726151112      1.20949910419533      0.91032557043096
  H           0.91823313972853      1.50421669083271      1.08608642984068
  F           0.99557559650183     -2.40356054079802     -2.87634780849551
  F           2.02328380773564     -2.96119757055887     -1.04735573183118
  H           0.09916214858161     -2.46838381597710     -1.10675854203326
  C           5.70236109338721     -2.55778250054410     -5.50566522490640
  H           3.77202963193163     -3.40985953407938     -5.09440208086617
  H           4.80270448102906     -3.24839933895595     -3.66725364077007
  H           5.40155843554575     -2.08676268421831     -6.43895921486839
  H           6.16771327377191     -3.51315518585343     -5.73606527285412
  H           6.44021259286820     -1.92146002273073     -5.02179472304121
