19
Coordinates from ORCA-job NEB E -36.734338932730
  C           0.83394927154884     -0.97339812514512      0.25680360201493
  C          -0.21029293816312     -1.62247423999689     -0.43002619635353
  N           0.75771526207954     -0.58360732878893      1.59243531480829
  H           1.83889288145866     -1.07740478037352     -0.12362709167671
  O           0.20411324825451     -2.29335679064536     -1.53541737974115
  C           0.37183945774960      1.17387992191876     -0.40620007683261
  C          -0.94707039842937      1.14089631105908      0.06886567702443
  C          -1.91466013303679      0.41123316917483     -0.57196250072270
  O          -1.42367463132866     -1.47288304111225     -0.21873180003056
  N           1.33102354483831      1.90575955700488      0.18139210433242
  H           0.56495254734415      0.88938834667021     -1.43336203625674
  H          -1.12876354318156      1.48376555647701      1.07734457725845
  H          -1.84029957882807      0.22134301580307     -1.63146824793289
  H          -2.89981859331729      0.33643821962464     -0.14676892027865
  O           1.73531924762714      0.03243316455435      2.02230638123180
  O          -0.23709333881453     -0.80167998167361      2.25490942232849
  H          -0.56713746582908     -2.66873626843311     -1.98520306170757
  H           1.25151082716360      2.08264874676295      1.17456159390185
  H           2.27949433286412      1.81575454711903     -0.14585136136755
