19
Coordinates from ORCA-job NEB_reactant E -36.750683179660
  C           2.19111619622946      0.60096331062999     -0.35554559754080
  C           1.54423198104558      0.75547995318700     -1.54734600917230
  N           1.75941318633894      0.98014312673472      0.91660289646172
  H           3.16056715747899      0.12509635944759     -0.34511863595425
  O           2.01962711050718      0.12879412573397     -2.63934318161206
  C           2.01281841140374      4.12343395328210     -1.72696015188433
  C           1.25326479930444      3.54389778905265     -0.79444644618922
  C           0.10390183025032      2.65344988102150     -1.14114546862704
  O           0.50326325638146      1.47800915479906     -1.88088186387410
  N           3.15811872483179      4.83351433473014     -1.47829631018351
  H           1.78658864476251      3.98778678169621     -2.77676841597440
  H           1.48603001923988      3.67022919714692      0.25190073971196
  H          -0.59341688250207      3.13244972159834     -1.83358420796100
  H          -0.42666533394370      2.34740589348906     -0.23502227072803
  O           2.61315033762103      1.07408860850884      1.78367549286349
  O           0.56526349658527      1.14679763823361      1.12139143914595
  H           2.71686472550980     -0.50068979355484     -2.41571676432531
  H           3.30850531886956      5.10274397743198     -0.51825374795958
  H           3.42985702008582      5.52400598683117     -2.15764149619720
