19
Coordinates from ORCA-job NEB_product E -36.749839238620
  C           2.52722388208061      1.55603992591420     -0.69760466816073
  C           1.43551009660820      0.51196718957099     -1.01159916892812
  N           2.80806819855086      1.51425593303602      0.76339060170502
  H           3.47023217778721      1.28008285053817     -1.18309866738586
  O           1.37482172473233      0.16098680930361     -2.29745672439492
  C           2.05413371933471      2.94896660142441     -1.19581860866335
  C           0.63024653302975      3.22734484823922     -0.77801191382382
  C          -0.35871561725580      3.38296493207121     -1.63708486864048
  O           0.69055808922994      0.07334579340289     -0.19492485609086
  N           3.02001995336981      3.94247336610912     -0.75342350906738
  H           2.10063970655278      2.92717543769493     -2.29395766544635
  H           0.46993435791679      3.32050161440692      0.28585792146821
  H          -0.21356414089255      3.29271744837842     -2.70235957668092
  H          -1.36026625061778      3.60137896966642     -1.31126309836177
  O           3.57718527126103      0.65709466407888      1.11171592765758
  O           2.26709647762506      2.31095597464045      1.48197475665690
  H           2.04795404477269      0.57263313492248     -2.85566873114671
  H           2.93510567186598      4.09034480048154      0.24821399195242
  H           2.84221610404836      4.83006970612009     -1.20798114264887
