23
Coordinates from ORCA-job NEB_product E -40.951419876510
  C           2.97735865099809     -1.16829459907596      0.17569831176296
  C           1.49801717607454     -1.00484337463908      0.51132003155108
  C           3.34317542280753     -0.25679528387916     -0.99963881445005
  H           3.57878449372705     -0.84926294082303      1.03413057300332
  C           1.13781048975039     -1.45439549621499      1.92008920508933
  C           3.25310346871348     -2.67622624618318     -0.07874699402453
  C           2.15222934097357     -3.29302836356009     -0.89817731031055
  C           1.44494854472511     -4.33616631686893     -0.50971686836766
  O           0.69426793952311     -0.55637113746153     -0.25490657994133
  C           4.61526806966643     -2.92378720884634     -0.74644121873785
  H           3.30084220673145     -3.17784639305542      0.89399034720224
  H           1.97300900378487     -2.83229100738891     -1.85840543842052
  H           1.60943748369889     -4.81973642247720      0.44055702371361
  H           0.66881540307199     -4.75417716490974     -1.12579278520401
  F           4.65826658393845      0.12391819374387     -0.89111616724683
  H           2.74525582874842      0.65944804463873     -0.97313858178762
  H           3.22584328534297     -0.74258864731612     -1.96966196163396
  F          -0.20717095857567     -1.39623178884149      2.13213236743502
  H           1.61306939392579     -0.79181444563802      2.65398751025214
  H           1.45122792839018     -2.48899337432126      2.09383903448916
  F           4.57280481615439     -2.69399350850938     -2.09581590305378
  H           4.90078019744830     -3.97399436408629     -0.62566601107971
  H           5.39115523038067     -2.26992815428648     -0.33681977024045
