21
Coordinates from ORCA-job NEB E -50.931194888030
  C           0.22556233892616     -0.49996294356123     -0.50474554979120
  C           0.10557664339774     -1.87971074257103     -0.29440803558451
  C           1.20407857127565      1.46290649247431      3.37631526468115
  H           0.64696498661937      0.13113811960162      0.26083892371904
  C           0.59012711410754     -2.36242586574655      1.08800784581498
  C          -0.23376707229491      0.12205773615322     -1.76625026619408
  C          -1.24151909662860      1.22360849877304     -1.48730482559917
  C          -2.44859291435287      1.23242828360173     -2.01228637353529
  O          -0.33987480044835     -2.71419617046549     -1.07087735413622
  C           0.89870554877343      0.74002219742523     -2.43538960934889
  H          -0.65926914721241     -0.64688337135815     -2.42296637138289
  H          -0.89385592710957      2.00135601125730     -0.82310961473388
  H          -2.79529419255350      0.45848098795976     -2.67692169435885
  H          -3.14544258910793      2.02398615225404     -1.79529595278861
  Br         -0.18799327961264      1.81003284706819      4.56012920305976
  Br          2.80661855793130      0.80758664160290      4.05871744137641
  Br          1.27333336721996      2.45929616300676      1.80982156699963
  Br         -0.40924112957548     -1.43944101672720      2.49225609355429
  Br          0.33538365358371     -4.26127341399766      1.26781684520788
  Br          2.48293495618970     -1.91515946477155      1.32084153443158
  N           1.78556441087173      1.24615285802084     -2.94518907139117
