21
Coordinates from ORCA-job NEB_product E -51.035729578500
  C           1.46287323580804     -0.03548845192826     -1.59420721801866
  C           2.46053692543220     -1.15882429272315     -1.83073839283213
  C           2.20859839241400      1.04334183320845     -0.81473527189616
  H           0.62997289680071     -0.37344418157549     -0.96635521336647
  C           2.03005421141569     -2.56979802495409     -1.45051910455806
  C           0.86747835246226      0.40720528433481     -2.96651922170439
  C           0.16195950602754      1.74159797619311     -2.92819821323056
  C          -1.15295242922679      1.84720424901842     -2.89853878740472
  O           3.52311225196455     -0.99058718338231     -2.35186149025218
  C           1.85648932777073      0.43448864949922     -4.02878594402213
  H           0.13186588875828     -0.35934892169274     -3.24615295242431
  H           0.79236343175285      2.61827941938796     -2.97359413893080
  H          -1.79931715215257      0.98479993957358     -2.87569177451203
  H          -1.63407292462710      2.80868971745458     -2.88651773441226
  Br          0.96783556010324      2.29027449839091      0.03053745559146
  Br          3.18547975054009      0.16279591802437      0.66118660918841
  Br          3.49649583598178      2.03400207441535     -1.87053712903345
  Br          1.11489567115221     -2.71285180847097      0.25137852823686
  Br          0.78433973314369     -3.09383272661115     -2.87903864480674
  Br          3.56584933440833     -3.74023033598847     -1.47415802190493
  N           2.57634220007027      0.45522636782587     -4.91415333970674
