21
Coordinates from ORCA-job NEB_reactant E -51.034311802650
  C           2.12401455007928     -0.17815188160167      0.20567900945236
  C           1.53846231597213     -0.71428103177060     -0.87913102249729
  C           2.45240292878682      1.26128893826142      0.23600477886404
  H           2.40255313371789     -0.76388995536753      1.06499900476344
  C           1.18949889164683     -2.16832324440246     -0.97529823484037
  C           0.41089081660792      0.95889426053752     -5.16979691833021
  C           0.50901167324725      1.12205821154289     -3.85356690868183
  C           0.29119221128824      0.01891393423164     -2.86936880067458
  O           1.36771805252623      0.09941352511670     -1.93380903572841
  C           0.59418351545264      2.02192628630866     -6.07814417065947
  H           0.17390823581289      0.00191149007476     -5.61774020253332
  H           0.75582573001781      2.08303335696072     -3.42548336809093
  H           0.25219803949081     -0.94702895589284     -3.38078878356798
  H          -0.65670750917449      0.19197576511679     -2.33934089056011
  Br          0.86496753595302      2.36664408151810     -0.12936813045835
  Br          3.14813612513586      1.78263140165966      1.97404938928187
  Br          3.80176976031614      1.71442890635284     -1.13670072343774
  Br         -0.77110371394301     -2.41850324653290     -0.99270002188011
  Br          1.96891506274495     -2.91678886214547     -2.62335629027226
  Br          1.86429543556610     -3.24232384305264      0.49584770593963
  N           0.74026720875470      2.87217086308440     -6.83188638608837
