18
Coordinates from ORCA-job NEB_product E -41.891945544610
  C           2.25075397455053     -1.35183798349708      1.12514550538723
  C           1.75023587096477     -0.32610184406190      2.10199483516702
  I           0.83318546228106     -1.22396690595051     -0.50732758343731
  H           3.21425661180538     -1.05963299331928      0.70759354108986
  C           2.49066487252883      1.02200959158949      2.03808731325609
  C           2.31685087065924     -2.77966168443120      1.69019786148153
  C           0.98168588693708     -3.34579789651715      2.10455927507006
  C           0.42837108181071     -4.37651597220828      1.49482218042364
  O           0.88877358657719     -0.50238265321880      2.91086292062850
  C           3.20033472762710     -2.75624712743753      2.83984061428310
  H           2.76522337845491     -3.43010286448221      0.92743345948344
  H           0.49827509423139     -2.84715708597362      2.93102197147546
  H          -0.53112193175573     -4.75655300018004      1.79799567957990
  H           0.90247716774371     -4.88022429249215      0.66733050910357
  Cl          2.80212113945736      1.58373189561334      0.39248720458294
  Cl          1.61450860160746      2.25790061149273      2.93714206842456
  Cl          4.05235775635065      0.66415431157197      2.85132026532526
  N           3.88744584816836     -2.75121410649778      3.75159237867514
