18
Coordinates from ORCA-job NEB_reactant E -41.883574367420
  C           1.67856406693351     -0.52586427419246      0.24640512204700
  C           1.25753349429917     -0.35518877962845      1.49605444112390
  I           1.34448417064321     -2.13432409879113     -1.04960298806716
  H           2.23450090263606      0.25533613034382     -0.23818049628018
  C           1.56616904520212      0.94077861067817      2.22820810941311
  C           2.61800627341706     -4.09875424484573      1.82694565474843
  C           2.14272203063496     -2.99306885498346      2.39600038810281
  C           0.71382490085608     -2.56288584705702      2.31699517326005
  O           0.56631844720811     -1.14900669006893      2.34285619684685
  C           3.96740389051688     -4.48425532575385      1.95168321161017
  H           1.99302895248274     -4.75964628421644      1.24007701873257
  H           2.79081809881681     -2.34559188820440      2.97281783802357
  H           0.18775160967248     -2.88157191430990      3.22570378995021
  H           0.20292574239755     -3.00718817059176      1.45641016413810
  Cl          2.82356336659011      0.58579332980299      3.45168380629789
  Cl          2.14995870711321      2.24778837687785      1.19859219948463
  Cl          0.10333412148527      1.50090017732999      3.06612626878486
  N           5.06389217909467     -4.80325025238926      2.04832410178320
