17
Coordinates from ORCA-job NEB E -35.932975172940
  C           1.06522798258588      0.53012837575351      0.49010625055728
  C          -0.38092434211269      0.73773335623900      0.62908123264153
  I           2.02622014822358      2.30797491278734     -0.29437418295880
  H           1.56923234970780      0.30109855651480      1.42630223158732
  C          -1.07540568210830      0.34034514277372      1.81593731658854
  C           1.26912669737615     -0.68081921051371     -0.53236862626316
  C           0.48957119843960     -0.41301650303928     -1.73214687992131
  C          -0.90060479790495     -0.23094868193670     -1.57079058997961
  O          -1.07459298935091      0.93575619549293     -0.43920444619219
  H           2.33413014739432     -0.79329622453440     -0.72778524069164
  H           0.89889217889034     -1.55308701765587      0.01478335003471
  H           0.98571141558383     -0.01032023832043     -2.60195482418117
  H          -1.43722457225836     -1.02012828584529     -1.04308400941186
  H          -1.45353750582656      0.15734240525862     -2.41780638606936
  Br         -0.21360970216598      0.59769124299074      3.48507177876908
  Br         -2.90447418081814      0.84238080174239      1.85513641908042
  Br         -1.19773834565560     -2.04883482770735      1.64309660641021
