17
Coordinates from ORCA-job NEB_reactant E -35.949486713640
  C           1.73369283961592     -0.21528030299616     -0.01784757696443
  C           1.80763896727270     -1.51968335450695      0.23131388630993
  I           2.32734479676647      0.87385074541752     -1.71311071124504
  H           1.33489176805527      0.44716387184967      0.72947199419764
  C           1.32216532936863     -2.08613570820262      1.54245153895370
  C           2.14688909674611     -4.43442453162148     -3.40769390332120
  C           2.72227167846445     -3.92644320847310     -2.33590762544797
  C           2.52044482900564     -2.51644177625874     -1.87141323371599
  O           2.22370566893500     -2.58083857952360     -0.48104629351616
  H           2.32888857529075     -5.44810075030280     -3.71812436178035
  H           1.48121950162986     -3.85492208575454     -4.02611245353083
  H           3.38334542090760     -4.51259875806844     -1.71394775765439
  H           1.69676959524743     -2.04436231603720     -2.41617663765053
  H           3.44278215363843     -1.94151588750272     -2.02574706836510
  Br          0.92131142573460     -0.81400922520798      2.93292852773835
  Br         -0.30565130101842     -3.12564460408590      1.17139281564273
  Br          2.67318965433955     -3.31201352872496      2.22856886034963
