15
Coordinates from ORCA-job NEB E -27.380598597740
  C           0.74975756969807      0.71254357170541     -0.01345269810887
  C           0.55172882581004      0.83366874065428      1.40069579804839
  H           1.00330349152182      0.84451631796379     -1.11787368186658
  H           1.07097854515745      1.76299734971100     -0.27470392498249
  C           0.77334291468181      2.18634136694635      1.87954418923592
  C           0.52351525263213     -0.76974761659898     -0.44468949343703
  C          -0.73907863675815     -0.94112923842939     -1.23110806917898
  C          -1.85240396815704     -1.40462905298240     -0.69436698006914
  O           0.21091383048906     -0.07127835958309      2.15307182827445
  F           1.60398549756807     -1.23332514734571     -1.18386801273619
  H           0.49629511168905     -1.34092063449396      0.49411118184382
  H          -0.68800800536291     -0.65406980325393     -2.27391929867272
  H          -1.89644933425083     -1.68737119258770      0.34380021890053
  H          -2.75967990177844     -1.50065893835957     -1.26459503911126
  N           0.95179880705988      3.26306263665389      2.22735398186016
