15
Coordinates from ORCA-job NEB_reactant E -27.518567956670
  C           1.40004597711625     -0.09396719214899      0.10751574752530
  C           1.36087424914711     -0.75279114490942      1.26869903913999
  H           1.09342696050719     -0.52273375100540     -0.82901806676902
  H           1.74850076604627      0.92195538510965      0.08564925061820
  C           1.79687489970425     -0.07954618488456      2.44967921754351
  C           1.84663635950563     -4.66828107237361     -0.46356314960058
  C           1.61463645232393     -3.37404016686981     -0.36155461735133
  C           0.48445905527096     -2.81471673017918      0.44871610262335
  O           0.93828851051252     -2.01723733468704      1.52541540319686
  F           2.86223933345151     -5.14592865113708     -1.19231345825317
  H           1.26247732797668     -5.45811996849550     -0.01305421932901
  H           2.27632349409982     -2.67126082473989     -0.84635122253355
  H          -0.07871731946556     -3.62369602935825      0.92051154518053
  H          -0.19502576695658     -2.23447002591775     -0.19071533405135
  N           2.15045970076001      0.49173369159681      3.37618376206029
