15
Coordinates from ORCA-job NEB_product E -27.523852708010
  C           2.08912399699460     -1.27479548489387     -0.02480814594481
  C           1.83860706295025     -1.02506995442560      1.43987193501396
  H           3.13479623678142     -1.02632484175435     -0.23946711329657
  H           1.47029257904655     -0.60046690234079     -0.62432297620792
  C           1.89576556734610      0.39550350481199      1.75766348575485
  C           1.82843882997372     -2.73653187209280     -0.41126304710450
  C           0.36042054376047     -3.02932652532941     -0.49193365385598
  C          -0.30475055994536     -3.69151715268128      0.43423419474211
  O           1.62637585936363     -1.86717932144335      2.27081076322413
  F           2.41360938226828     -2.95231336660573     -1.64658859654106
  H           2.33286127771086     -3.40969662773215      0.29279531321865
  H          -0.12509079637464     -2.64062422730599     -1.37677703588246
  H           0.18162591527492     -4.07530387816667      1.31527714035587
  H          -1.36452488629365     -3.86067291889342      0.35514441118556
  N           1.93934899114284      1.51591956885342      1.98496332533818
