20
Coordinates from ORCA-job NEB E -47.812355165200
  C           0.08398340308460      0.92186617207245     -0.48016464189991
  C           0.20773868417253      1.54938229937596      0.77852031587658
  C           1.10738467575542      1.14598689243385     -1.55936230097005
  H          -0.92890991576985      0.99067057051713     -0.87663887721417
  Br          1.97673850935348      1.93248567558279      1.48284473940749
  C          -0.05928336495494     -0.92916340701712      0.15183998380123
  C          -1.04418199716602     -0.86734556345945      1.14930063624782
  C          -0.82218103514511     -0.07707828988239      2.29558422841345
  O          -0.71173214151362      1.46079361507116      1.63557791031696
  C          -0.41610719574463     -1.81031834890303     -1.02929876989051
  H           0.97780607278205     -1.04830957830745      0.45283338171587
  H          -2.06615058200759     -1.06033362864479      0.85284608700710
  H           0.15238630437532     -0.13294650598530      2.77223488849296
  H          -1.63987018929288      0.03860527578809      2.99354886503084
  Br          0.39643941517362      0.70613410559728     -3.32289916050886
  Br          1.55666119857190      3.07387808235012     -1.65940831441137
  Br          2.77753071880578      0.17943152374649     -1.31928292478482
  F          -1.46059893027261     -1.30453926967998     -1.72597403823036
  F           0.60966300885040     -1.94498175523484     -1.89314585173344
  H          -0.69731663905785     -2.82421786542096     -0.69895615666679
