20
Coordinates from ORCA-job NEB_product E -45.689075831610
  C           2.22772725887412      3.13189990961710     -1.72567312864948
  C           0.87714426943839      2.45864936520151     -1.45821266413148
  F           3.17106634960413      2.18729732976215     -2.04596702788145
  H           2.13014884634979      3.79248542071060     -2.59814777323280
  C           0.89403152792213      0.96347923061328     -1.68425246099078
  C           2.63544429758953      3.94479650892242     -0.48169269500951
  C           3.03925839994787      3.01525154422096      0.63260718241377
  C           2.31647835617568      2.83937851786823      1.72128782599271
  O          -0.07530067388985      3.08651701405269     -1.09638905989465
  C           3.74578009296021      4.95616342427573     -0.77362058381884
  H           1.74669624925207      4.51417890948281     -0.18506457930436
  H           3.96026324850468      2.47475020305265      0.46914010790961
  H           1.39415238110201      3.37148754009417      1.88565948942289
  H           2.62063542722440      2.15459078515937      2.49332327261408
  F          -0.32533084387965      0.41022354019398     -1.44206938280587
  H           1.61962574950019      0.49846294217566     -1.00547808714740
  H           1.17081469910999      0.73772584804249     -2.72087660657051
  Cl          3.22225096704573      6.11815252412838     -2.02007908418972
  Cl          4.09144485736705      5.86753770365684      0.71690875764068
  Cl          5.24436853980154      4.18497173876894     -1.32140350236689
