23
Coordinates from ORCA-job NEB E -36.692417658880
  C          -0.14263967102832     -1.23416336167709      0.35906874603038
  C          -1.51363100782045     -1.01133950622904      0.55742542933653
  F           0.66036158658714     -1.22103475737698      1.44757621813251
  H           0.17314717842511     -2.02239053685140     -0.31885886218005
  C          -2.48605686024098     -1.41872935527166     -0.53139516443844
  C           0.34747707401935      0.41215980806539     -0.48740310578779
  C          -0.03826199839254      1.31771862502679      0.50759404487993
  C          -1.41807840568310      1.42319752575879      0.82380129256057
  O          -1.88483245211508     -0.05962327016068      1.36117600608253
  C           1.79170410080725      0.27308738903765     -0.92448645055430
  H          -0.32597243061199      0.32294432698356     -1.33822167240251
  H           0.67321504728801      1.57933396374025      1.27476879949062
  H          -2.10252780348378      1.53916213407641     -0.01375156005210
  H          -1.67992568250421      2.05097496568884      1.66575319623626
  F          -1.87692423283432     -2.14611942315997     -1.52057774896907
  H          -2.92981887979682     -0.53202687894090     -1.00541126043437
  H          -3.28804426611175     -2.03973008734481     -0.11701652605806
  C           2.83790157183064      0.57927878054100      0.14046075729144
  H           1.93231498005773      0.95813950352816     -1.76700693026688
  H           1.95103529971348     -0.73608380013772     -1.31074561990343
  H           2.80481499108943      1.62760170700454      0.42606765523582
  H           3.82910350171080      0.36838654318827     -0.25436775125678
  H           2.68563835909441     -0.03074429548941      1.02555050702719
