23
Coordinates from ORCA-job NEB_product E -36.724426625610
  C           3.26291861662460      0.83623719597055     -1.67195865506903
  C           1.79916074945864      0.55576687243539     -1.33002290755561
  F           4.04384178296807      0.44946869102172     -0.61069935846417
  H           3.59178563243990      0.23727169269915     -2.53154674143670
  C           0.98858951786291      0.11815016341858     -2.54468952025599
  C           3.41629541633456      2.34588883636592     -1.96412169982371
  C           3.19319370783510      3.13604537239412     -0.70646081228455
  C           2.37904642622948      4.17036948395965     -0.62853358005855
  O           1.34115332890525      0.68198575411046     -0.23398509919157
  C           4.76996561478854      2.67567329374760     -2.62326274521834
  H           2.63487568155100      2.60543323588422     -2.68874673673654
  H           3.74657518501215      2.79966188318209      0.15737536613606
  H           1.80805969903937      4.51377551551251     -1.47656185182825
  H           2.24794422661302      4.71949963055339      0.28715423665640
  F          -0.35054056580612      0.19111845305032     -2.30471289763311
  H           1.22393493431624     -0.92844498246931     -2.77679371822172
  H           1.20449684785327      0.74790984346748     -3.41494916800287
  C           5.98417769525544      2.49128444272901     -1.72161810979220
  H           4.72561338406293      3.71747723486497     -2.94894160782000
  H           4.88132592955525      2.05358712559518     -3.51572506531714
  H           5.93228361834108      3.15986323193327     -0.86693649798021
  H           6.88919190535758      2.72110705005146     -2.27964177241837
  H           6.05751066540174      1.47066997952229     -1.35872105768381
