20
Coordinates from ORCA-job NEB E -44.249019033870
  C           0.71168109711844     -0.37432252502102     -0.76086415553697
  C          -0.62459710778315     -0.94431557436275     -0.92150799796676
  H           1.44302329049715     -1.13213042338683     -0.48410090276225
  H           1.05884893591603      0.18391890203837     -1.62796783157869
  C          -1.51360973182235     -0.50856211153941     -1.96277022665964
  C           0.63669613608316      0.63559730939974      0.51164298055927
  C           0.06905333848616     -0.09857690623791      1.62755813762752
  C          -1.20135640596229     -0.70527135676883      1.42688251728725
  O          -1.16258757063482     -1.55381237895662      0.09291834345904
  C           2.03548744154880      1.17672511340882      0.78810507420034
  H           0.00204805325267      1.45712556816650      0.16212830922913
  H           0.73489873449279     -0.48305110502341      2.38424090278501
  H          -2.00825402129984     -0.01630297046838      1.16627757526720
  H          -1.51127965681715     -1.41961103804648      2.18220436215626
  Br         -0.76455339837954     -0.15213239719642     -3.66994971488320
  Br         -3.12109165834288     -1.51630412077874     -2.08050346574340
  Br         -2.26949838594207      1.59325349432768     -1.24536627759719
  F           2.88808438233040      0.17484320268679      1.11036773095653
  F           2.54745522577663      1.77431197973730     -0.30980162645244
  H           2.04955130148185      1.90861733802160      1.61050626565298
