20
Coordinates from ORCA-job NEB_reactant E -44.270500716830
  C           1.54943438079903      0.13543011429588     -0.02039128938136
  C           1.59858672736130      1.46005725795398     -0.00216488087738
  H           2.00972003598195     -0.45910754545427      0.74583904370846
  H           1.04851062507487     -0.40069116051776     -0.80331478943804
  C           1.01410635755055      2.35429978544414     -1.05272494213369
  C           3.27748582764644      4.02754200057742      2.70426686273267
  C           3.39353031529648      2.72801865231264      2.91490397723180
  C           2.85071248815703      1.66722045391983      2.01281521894145
  O           2.19526193075540      2.26142591547554      0.91452309656042
  C           3.83124795819420      5.06486332144192      3.63179473473584
  H           2.78664536516216      4.43066574556004      1.83254958482996
  H           3.89939600476707      2.34928578739322      3.79185000528759
  H           2.14662360718333      1.03654648375807      2.57587280320381
  H           3.67542653583214      1.02990081204893      1.66069675288605
  Br         -0.14825258816800      1.47384651464778     -2.30977483772363
  Br          0.00392486438347      3.78069322739649     -0.18227842981707
  Br          2.49364296320621      3.18596246496961     -2.04736682377881
  F           4.44528225093510      4.51770283077447      4.70799788140492
  F           4.77101886388027      5.81774723382153      3.00212818540379
  H           3.05599548600099      5.75659010418056      4.00377784622325
