22
Coordinates from ORCA-job NEB_product E -50.482621332330
  C           2.75087580762470      1.11738616558237     -0.78748547730025
  C           1.25079482191123      1.24325483449201     -0.88858010509948
  C           3.11930133734232      0.65387166129902      0.61894528139901
  H           3.08276741327305      0.33129293293185     -1.48022664725324
  N           0.74920971565717      1.16695742453695     -2.35505866742946
  C           3.27346649707938      2.48515745742570     -1.35015215802806
  C           2.35320335511575      3.61566625150802     -0.95453247776567
  C           1.57599319657393      4.24604956724292     -1.81578343338680
  O           0.43539786163501      1.39790526214327     -0.04931451554797
  C           4.72344630322248      2.84679124833084     -1.02608377000529
  H           3.23827355289292      2.37494187869925     -2.44048720229843
  H           2.37787800629996      3.90957012615648      0.08431103481537
  H           1.54573837962558      3.98720536184257     -2.86283133072415
  H           0.93575357272550      5.05325074886647     -1.50771091582750
  Br          2.11291680183772     -1.02529905124427      0.96310150317285
  Br          4.99490645729554      0.14533297700085      0.75617458837247
  Br          2.67946398668956      1.89289988195524      2.03204151087268
  O           1.56379075091836      0.87357477131609     -3.19709443987949
  O          -0.41184240248743      1.40812825320796     -2.50968096170305
  F           4.89746020316064      3.10815001577978      0.30429745159381
  H           4.98067971677307      3.76625092369364     -1.56224159557053
  H           5.42172466483354      2.04966130723299     -1.29870767240682
