19
Coordinates from ORCA-job R E -32.754016227670
  C          -1.34877596706690     -0.03934859609661     -2.95164846403043
  C          -0.10992777589889     -2.59899991620512     -1.93194376852368
  C          -1.26508307812017     -2.07482541433797     -1.53417074692905
  C          -1.89935862786887     -0.89396015288159     -2.09083993556389
  C          -0.86136679098942      1.57834965605702      0.28531358840486
  C          -0.00731627050230      0.59597163329820      0.46282759341789
  H          -1.81407458472730     -2.54996731597061     -0.73126685654591
  H          -2.90939967772061     -0.70519475748539     -1.74612522977015
  C          -2.06809329758804      1.16793664078830     -3.45176014661921
  H           0.29669706644962     -3.47818034812675     -1.46328834479108
  H          -0.34153234154505     -0.15019595353848     -3.32186459318745
  H           0.46707460842401     -2.18027750809319     -2.73744344583569
  H          -1.75244211280208      1.64124281997247      0.88941602762797
  H          -0.12683523264557     -0.18618703640112      1.19266633398628
  H          -0.72270294010392      2.34855078888299     -0.45340320708528
  I           1.76145842661911      0.38897710713811     -0.65789155830211
  F          -1.50311679472534      2.30884510861963     -2.96058362382477
  F          -1.97927583746118      1.27016335550370     -4.80216483520670
  H          -3.13553877172711      1.19126988887640     -3.18090878722161
