19
Coordinates from ORCA-job NEB E -44.166178764170
  C           0.29197331637835      0.08021018243927     -1.13956780760645
  C          -1.03088013394373      0.53192842379643     -0.90406764679627
  C           0.44513139995854     -1.25985111871712     -1.61563436832970
  H           0.94062102134634      0.79699126214461     -1.64725788804731
  N          -1.23480366243885      1.97577795586623     -0.92757141299747
  C           0.89458811431152     -0.02422510411218      0.62787916277389
  C          -0.06606709797850     -0.82207655893368      1.26392943694097
  C          -1.42901822155047     -0.36850131242971      1.29179932588955
  O          -1.86287953225105     -0.15409910438986     -0.18839646695020
  N           2.25532713030014     -0.58967971264621      0.53665160541632
  H           0.95760859561653      1.04337669892582      0.82996026182334
  H           0.15105172946914     -1.87876066911750      1.35345439655131
  H          -1.59605661919077      0.62216130429334      1.71916643300760
  H          -2.14731256017723     -1.08983275050912      1.66764106087045
  N           0.53212070314666     -2.32622454021960     -2.01390286209189
  O          -2.15432242206002      2.40060433695138     -0.26488054114145
  O          -0.45698868694118      2.63465536574468     -1.58760607481138
  O           2.36463315945750     -1.78556923668282      0.57974964065009
  O           3.14527376654708      0.21311457759603      0.41865374484863
