19
Coordinates from ORCA-job NEB_product E -44.192879924630
  C           2.88224131470044      0.48824779204056      1.35105445088423
  C           1.72857112024310      1.44115552737844      1.47516854525573
  C           2.55366307676421     -0.55767948518416      0.39482159017485
  H           3.74936220791268      1.03416497657362      0.93746372896562
  N           1.34708148987596      2.08047681303620      0.11837650653359
  C           3.26090825983543     -0.09447754927163      2.72709738171041
  C           2.41638880260299     -1.26124683248533      3.14268290854853
  C           1.56700266487318     -1.20976787540766      4.15086891427333
  O           1.11383829000121      1.74798021440363      2.43658547065770
  N           4.71725323881744     -0.48655537915635      2.70957264102757
  H           3.18182887569461      0.70653004063907      3.47454573696226
  H           2.54129500137314     -2.15936946925189      2.55461018740627
  H           1.43193595740802     -0.31900060917223      4.74205940810948
  H           0.96505852905157     -2.05944169343145      4.41819565776390
  N           2.28854351504757     -1.40301972800747     -0.32190911751436
  O           0.32457121006976      2.70312196332832      0.11523812542556
  O           2.11474441134466      1.89804610865299     -0.79286897407378
  O           5.44803828414993      0.18122278108915      2.02154793411895
  O           5.03637375023410     -1.40748759577380      3.40658890377019
