14
Coordinates from ORCA-job NEB_reactant E -22.828425115840
  C           2.02247958952218     -0.06548335794175     -0.02519062977004
  C           1.28204330779108     -1.15322452262067     -0.17127593713214
  H           2.78315037924706      0.16205261885206     -0.74801619310959
  H           1.89983226121103      0.59084627858268      0.81329213829115
  Cl          0.03217992923660     -1.51285479266380      1.00224538139960
  C          -1.01704382320832     -2.21382255084972     -3.62107515272430
  C          -0.58517403808823     -1.94803261651850     -2.40377555957264
  C           0.39117202711221     -2.80308143830409     -1.65330027499006
  O           1.48720510165513     -2.05158009403778     -1.13991203265527
  H          -1.73145625462099     -1.58206304549706     -4.11975487308160
  H          -0.68192939017080     -3.08149070940337     -4.16509530763115
  H          -0.92681420230519     -1.07144387005610     -1.86944247982613
  H           0.84975376379733     -3.54482668554714     -2.30999610816335
  H          -0.12219865117911     -3.31889521399475     -0.83010297103447
