14
Coordinates from ORCA-job NEB E -29.680428460690
  C           0.23528168145285      0.66837285653109     -1.29940732184808
  C          -1.08540603454202      0.44898127998328     -0.92530245394095
  Br          1.06566950170100     -0.67277245441148     -2.37604363659385
  H           0.55744969202999      1.65801378331051     -1.59661146132611
  I          -2.12946581229820      2.25408529237946     -0.28844297147003
  C           1.06367520789229      0.38959630677406      0.51619148541972
  C           0.57377514964045     -0.87314334533129      0.84226231492437
  C          -0.80793025419202     -1.03456344238710      1.04599498161528
  O          -1.51084697601945     -0.64253013573546     -0.49180815217744
  Cl          2.76021686897621      0.58504945231218      0.22437088957973
  H           0.62983539146204      1.27334411514209      0.97305992516426
  H           1.16314833020948     -1.73538184584840      0.56476694652803
  H          -1.33411512575153     -0.28061561791839      1.62199180413953
  H          -1.18128762056109     -2.03843624480054      1.18897764998554
