14
Coordinates from ORCA-job NEB_product E -29.722757595500
  C           3.11743385513574      0.74102998993183      1.23470741490879
  C           1.62708708635840      0.72784650251388      1.10512803850657
  Br          3.86326743463396     -0.41689728638269     -0.15143551278250
  H           3.51655168394194      1.74154386282898      1.05069041877610
  I           0.72931745154150      2.37294730607042      2.20615922505824
  C           3.51933528977735      0.26534746131794      2.63730038223335
  C           3.01432701504674     -1.10384113893680      2.94709572161994
  C           2.22356649209466     -1.36544197922333      3.97135065570706
  O           0.94025924363058     -0.03474257764666      0.53231994582719
  Cl          5.31736254166906      0.28866873315977      2.75293750249864
  H           3.16272074456104      0.99025942875178      3.37561564595886
  H           3.34416239626856     -1.88524814431739      2.27698639056456
  H           1.89446168234542     -0.59696979694034      4.65219686809771
  H           1.87254708299503     -2.36290236112737      4.16764730302550
