14
Coordinates from ORCA-job NEB_reactant E -29.708836375850
  C           2.22709686894425      0.53498037360245      0.56971107592690
  C           1.53029256818192      0.80518342077935      1.66447806548720
  Br          3.15225397471749     -1.07293363162828      0.16008360354486
  H           2.30576317199030      1.25609956746704     -0.22413320805250
  I           0.60050544939963      2.71232387154892      1.76613133905816
  C           3.96472018935728      0.34918566597009      3.59316453590756
  C           3.40283783142994     -0.82937062544918      3.37996618065563
  C           1.92907570992557     -1.02190214196693      3.17284819420251
  O           1.24061570712207      0.16164312957430      2.79511910357508
  Cl          5.65434461541243      0.54213491159583      3.81766399971918
  H           3.41543392208612      1.27768680234242      3.64627672070362
  H           3.99441010886124     -1.73091178372277      3.34242386945968
  H           1.45309668710795     -1.30742274713146      4.11786461210052
  H           1.74975319546380     -1.82229681298178      2.44710190771158
