16
Coordinates from ORCA-job NEB E -27.780746667580
  C           0.29289803786442      0.55639238286667     -1.18556223101735
  C           1.13206572898499      0.90985979300107     -0.11537943797224
  H           0.75814814843116      0.13170934739884     -2.06694947119267
  H          -0.53517082637242      1.21679205063178     -1.40498704034946
  C           2.43557846610287      0.36240853735109     -0.04776102811808
  C          -0.67851741774830     -0.83815132592777     -0.35796417777172
  C          -1.18092864756372     -0.22980206354585      0.80369040385864
  C          -0.21503918174040      0.27699649833578      1.74912025979923
  O           0.56556279385947      1.37139262720216      0.99412137488084
  C          -1.61697780682797     -1.23647434105784     -1.35785132638041
  H           0.13441384990032     -1.55366559697605     -0.24770653374961
  H          -2.14747300599173      0.25112448962399      0.75374439075762
  H           0.54589382116314     -0.43951815949456      2.06420597905792
  H          -0.63447899859304      0.80747838701031      2.59819770120856
  N           3.51041223167137     -0.04254785705036     -0.01414841682261
  N          -2.36638719314016     -1.54399476936926     -2.16477044618866
