19
Coordinates from ORCA-job P E -37.450645455200
  C          -1.20294015653477      0.54500591510692     -2.35186803717166
  C          -0.38347887638047     -1.70840251846505     -0.57481659739705
  C          -1.19819965447015     -1.88333503289880     -1.81747037642035
  C          -1.56708287306748     -0.89212556572792     -2.60938877278550
  C          -0.83879029691757      0.75469937780980     -0.87789041056900
  C           0.17685609712765     -0.29618525950181     -0.44536376002602
  H          -1.47937880140743     -2.89942720661803     -2.05207462711340
  H          -2.13607903530303     -1.08550556653155     -3.50537257621824
  C          -2.34567363995100      1.46263863345724     -2.77623329640301
  H          -1.00121269192327     -1.93005525089589      0.29959449740390
  H          -0.33290742516445      0.80596254484093     -2.96892528756164
  H           0.44623259218372     -2.41952361163069     -0.57970251761037
  H          -1.72800797792946      0.65159092250210     -0.25574746811564
  H           0.51930508288692     -0.10453392681233      0.57976266862041
  H          -0.41850634017013      1.75021036515539     -0.73429086762331
  F           1.30757915774566     -0.17966593311408     -1.23501500938357
  Cl         -3.84599386194512      1.02973527345132     -1.92439547451141
  Cl         -1.97685492920110      3.16718679448866     -2.42574246784114
  Cl         -2.64527636957850      1.33260004538379     -4.52667961927299
