19
Coordinates from ORCA-job R E -37.351668424470
  C          -1.36925399107281     -0.03285844268998     -2.96403618813320
  C           0.23558169396885     -2.41300011588528     -2.04461564869352
  C          -1.07753563525643     -2.25070984645169     -1.93202616592016
  C          -1.79224517915588     -1.00869150387008     -2.16130343919705
  C          -0.88189684786725      1.74166320297692      0.24182860352231
  C          -0.56760517645791      0.50833794620212      0.57074902889061
  H          -1.69906283343264     -3.08279654088137     -1.62728122814384
  H          -2.74358811581517     -0.91109039075648     -1.65569257815924
  C          -2.10075234186044      1.22480586453994     -3.24204941796664
  H           0.69959382050439     -3.36499263765818     -1.85435481456862
  H          -0.44553458683888     -0.12448264329197     -3.51687421167963
  H           0.89440822984493     -1.59809146978723     -2.28842081189365
  H          -1.81141777702348      2.17085932197238      0.56573134593441
  H          -1.15919166400457     -0.17050058109511      1.16742306140885
  H          -0.22690792620076      2.34591552393454     -0.35964326546609
  F           0.58291925287366     -0.06216425061580      0.17552651212074
  Cl         -3.40114142162727      1.56327205686050     -2.09380894695865
  Cl         -0.97663506655087      2.60983710761589     -3.23473736403613
  Cl         -2.82998443402748      1.13000739888089     -4.88683447106051
