19
Coordinates from ORCA-job TS E -37.337590015790
  C          -0.30511480319804      0.39587020839192     -0.95635076442134
  C           1.11035191730609     -1.75618756049848      0.28723185811649
  C          -0.19698501636062     -1.85784806981666     -0.06513735171742
  C          -0.89457573096884     -0.80657032858859     -0.69245132871086
  C           0.23396864526803      0.96038456654774      1.20870119990543
  C           1.04666453418087      0.01120851468192      1.72288943475787
  H          -0.78456613583305     -2.68742176334661      0.30174725221990
  H          -1.96804347339056     -0.89363366398542     -0.77910755865789
  C          -1.08838943343946      1.52527798281655     -1.52269395818260
  H           1.57546830540353     -2.53231470796929      0.87322066757699
  H           0.75529685124347      0.46791318768781     -1.13517685552207
  H           1.79163629513811     -1.11631072199182     -0.24437784020091
  H          -0.80632428782109      0.96303104267186      1.46893048717153
  H           0.76695653337350     -0.72419759699344      2.45998281980509
  H           0.65421677115108      1.85978454572854      0.79763871432630
  F           2.38575770516337      0.18530891435258      1.67139443961400
  Cl         -2.61913974414893      1.78134183321618     -0.65827333161113
  Cl         -0.16841675823391      3.04484989019800     -1.49072558339560
  Cl         -1.48876217483355      1.17951372689719     -3.24744230107378
