14
Coordinates from ORCA-job NEB_reactant E -27.043482157260
  C           2.01318052443621     -0.11737422786832      0.03556874304486
  C           1.28724072269366     -1.22665930011074      0.08155742468799
  F           2.27890644470403      0.53918327277865     -1.10743856662387
  H           2.45078329014339      0.35189306437883      0.90035286526466
  H           1.11765133733080     -1.69604088169453      1.04306794950063
  C          -0.39638426990736     -4.72848347577881     -2.49003990582938
  C          -0.53263290445368     -3.47781378079459     -2.08493670312518
  C          -0.01855981892105     -2.98097173473559     -0.77011620823084
  O           0.74317966193584     -1.81353347917671     -1.01054653543422
  Cl         -1.01156712996883     -5.29109526080996     -3.98814875132399
  H           0.09175236299599     -5.49548713074288     -1.90746492026447
  H          -1.01435238680629     -2.73496548462708     -2.70217214883350
  H           0.59503373081455     -3.74803843922796     -0.27800960986755
  H          -0.86963156499727     -2.73901314159031     -0.11317363296515
