14
Coordinates from ORCA-job NEB_product E -27.044783169700
  C           1.56974383082486     -1.63211462485654     -1.45299422129187
  C           1.31675005346389     -0.98663251732433     -0.09988712677443
  F           0.98359859270734     -0.89821134999382     -2.44686522070723
  H           2.65048404696495     -1.63867873817909     -1.65481152280300
  H           1.87561538639542     -1.49804978754319      0.70890748473461
  C           1.01742838750516     -3.06585600646187     -1.44457826062579
  C          -0.47393398309483     -3.08800767288901     -1.41623697248848
  C          -1.17293843939650     -3.77677703490010     -0.53360331989354
  O           0.60876348880881     -0.05044132510388      0.10068941521289
  Cl          1.58609431178244     -3.91930186732375     -2.93095303463018
  H           1.44611834694421     -3.61338742049969     -0.60178635679135
  H          -0.95443499730625     -2.50146080798524     -2.18574190541407
  H          -0.70052959440308     -4.36955316677394      0.23277811455435
  H          -2.24835943119641     -3.77422768016555     -0.54381707308192
