20
Coordinates from ORCA-job NEB E -41.970720236390
  C           1.06245587477251      0.17073811281213     -0.54967605956973
  C           0.67303770282802      1.46671139770878     -0.91641434427613
  C           0.63691329683205     -0.96641006986214     -1.46210336633633
  H           2.08782498456324      0.04241867774744     -0.21484911874981
  H           1.27635395364492      2.31197993524561     -0.57710290802295
  C          -0.03749652596119     -0.01115854597979      1.01107614045979
  C          -1.32910407823925      0.25129005657174      0.53722473288137
  C          -1.57726233714613      1.53633252856427     -0.03126209413281
  O          -0.55741950086185      1.69421839635495     -1.26027182359192
  C           0.22250434207319     -1.36671212108494      1.63388247502593
  H           0.45380824300829      0.76238238475630      1.59393522553901
  H          -1.93672352360265     -0.58106356274361      0.21426001613628
  H          -1.30091757757359      2.39149980345896      0.58139010958870
  H          -2.54216227606529      1.66882014451378     -0.50605919151813
  F           1.03953603708433     -0.68763433287623     -2.73059057091976
  F           1.26460767204372     -2.11280718276847     -1.13432932576257
  H          -0.44611235073815     -1.15136914749663     -1.49628629313241
  F          -0.37939493460839     -2.36714923618338      0.95553393868914
  F           1.54361809260967     -1.64821903205640      1.67984502083303
  H          -0.15406709466344     -1.40386820668238      2.67179743685932
