16
Coordinates from ORCA-job NEB_reactant E -30.309980041460
  C           1.42210727424092     -0.17227787699277     -0.64375750549922
  C           2.34215583011267      0.78135426631542     -0.77787368285145
  Cl         -0.25220265476951      0.19442907955941     -0.75093664673715
  H           1.66172658874372     -1.19921417541241     -0.43677818825318
  Cl          4.01694102668213      0.29183223036093     -0.68145165958819
  C           2.04560532781229      3.04811972324617     -4.07531081990424
  C           2.83852560549930      2.45373233792241     -3.18341139164413
  C           2.91492781635961      2.88159323087024     -1.75702246285040
  O           2.07396679989826      2.07299560804630     -0.90679342999714
  N           1.98071854139378      2.73098547195769     -5.40931484968312
  H           1.45192301614580      3.90668051226515     -3.79091592978907
  H           3.42373870591642      1.58874683265037     -3.46117164855568
  H           2.51775871547878      3.88821232554178     -1.62064858797584
  H           3.94279582522257      2.83501912407412     -1.38126851008233
  H           2.36758448645537      1.83628371017103     -5.66721112230897
  H           1.13352709480789      2.97440759942417     -5.89443356427987
