16
Coordinates from ORCA-job NEB_reactant E -29.565916279740
  C           1.90980973499344     -0.17946991230655      0.17678786803977
  C           1.61730874762401     -1.41901710679592      0.57064673194005
  N           1.76339319252804      0.26651838264600     -1.12124320321752
  H           2.23214993564468      0.55654463805184      0.89567550909054
  I           1.73156177850713     -1.90091678792744      2.65387859494863
  C          -0.49845387773281     -5.28519571175474     -0.65700613827861
  C          -0.21876901538094     -4.06456489372961     -1.08109414961277
  C          -0.05204161273758     -2.90680061030789     -0.15187482458090
  O           1.28816048151357     -2.43035755819759     -0.26430477996650
  Cl         -0.69326981590256     -6.61519315447357     -1.72048058630327
  H          -0.64380926787263     -5.53547564441565      0.38317765641973
  H          -0.06485631292290     -3.85739365164257     -2.12934993779437
  H          -0.24670874113834     -3.21197220561721      0.88498515101727
  H          -0.74833597464663     -2.09840356621561     -0.41977047179958
  H           2.39964755775540      0.99442920719137     -1.40511198022176
  H           1.66241318976812     -0.47093142450486     -1.80391543968070
