25
Coordinates from ORCA-job NEB E -51.390344579990
  C           0.53717343452543     -0.39874254584962      0.32012822354914
  C          -0.62457243596542     -1.05995686774255      0.75976086084541
  C           0.92886507411518      0.88710678234887      1.00376740365998
  H           1.37893549515713     -1.05743722240353      0.11316300142288
  N          -0.74629343557881     -2.46935836363374      0.46241606503134
  C          -0.13028146298739      0.08520774877155     -1.41405199659049
  C          -1.33284777780900      0.73921688414765     -1.14194561417949
  C          -2.37023715311044      0.00069391203193     -0.45877796151755
  O          -1.75139085690797     -0.40738934952343      0.88653172891122
  C           0.94383317127516      0.87673490919081     -2.12508261879276
  H          -0.16217503825734     -0.92194198105698     -1.82232356074414
  H          -1.33442972132426      1.81725606605326     -1.07303563187587
  H          -2.65999965188166     -0.94753933193815     -0.91567111191878
  H          -3.24050832400694      0.58546140969407     -0.17885474134994
  C           1.52269400911134      0.54493071060457      2.37069426449162
  H           0.05479769846319      1.52596021759426      1.13525685620428
  H           1.67690174046076      1.42335843478164      0.42218309564187
  H           0.78155339471515      0.04956964856590      2.99260852806292
  H           1.84523071499800      1.45551151511883      2.86776818788085
  H           2.38096006713426     -0.11339702419959      2.26277176394668
  O           0.28142275689633     -3.10198399159893      0.29931566649270
  O          -1.87176056452680     -2.92059615536355      0.38044195194203
  F           2.17486127889301      0.39685478927333     -1.91053978737907
  F           0.74835495856048      0.83922954914896     -3.45280061675857
  F           0.96891262805061      2.17125025598447     -1.78372395697624
