25
Coordinates from ORCA-job NEB_reactant E -51.411429683330
  C           1.83514941093513      0.05595361791867     -0.06197917897507
  C           2.00077356324228     -0.16745998985897     -1.37008507511729
  C           1.60646216023302      1.39456251486658      0.54020749120691
  H           1.86223680426390     -0.79621484752843      0.60226666517653
  N           2.18875103101367     -1.53526957400465     -1.83281627885977
  C           2.43949265325255      1.63379566500248     -5.66269504560245
  C           2.27562887351039      0.76561442676581     -4.67907646715262
  C           2.87349558077084      0.93824251666013     -3.31815646218270
  O           1.86719266890822      0.78819514089807     -2.31487197547243
  C           1.85473529793500      1.44330935243820     -7.02619121650057
  H           3.01720019641983      2.54129309687031     -5.56666490390182
  H           1.68900170642088     -0.13343638235745     -4.81086969213945
  H           3.29223517231967      1.94436349632250     -3.20262559390773
  H           3.67845853497959      0.20636919083077     -3.18895490056667
  C           2.50456393926346      1.61497086460380      1.75673591631636
  H           0.56118586018912      1.45224125341585      0.85802338717531
  H           1.77051557984408      2.16912711017570     -0.20995758519289
  H           2.32437301605583      0.85121042028558      2.50893348874006
  H           2.30390955739063      2.58802003336866      2.19645064038796
  H           3.55227298641748      1.57521661331189      1.46939652002587
  O           2.10444849943894     -1.73556852138948     -3.02646185175049
  O           2.41952710034066     -2.38373656354350     -0.99817682181924
  F           1.08685859037738      0.35555776473301     -7.13792682930117
  F           1.09359434807674      2.49199945402753     -7.39006422112122
  F           2.81173686840070      1.33824334618693     -7.96804000946541
