16
Coordinates from ORCA-job NEB E -30.286371104210
  C           0.19978186403847     -1.27626561825033      0.37185519044024
  C          -1.09163664048104     -1.00307683545004     -0.11516361688763
  N           0.47818398267186     -1.05058321740813      1.70007439255280
  H           0.73454116486777     -2.11831799870607     -0.05223523189573
  Cl         -1.46627887549812     -1.78791932252590     -1.66547312785640
  C           1.02784029404537      0.28643071036708     -0.67969924254506
  C           0.29338729431604      1.37995743339722     -0.23636009150373
  C          -1.05516304339533      1.47501571894300     -0.59174533460974
  O          -1.74491190314604      0.01752714574220      0.19237869914197
  Cl          2.69109096676484      0.15673395672078     -0.18504404428578
  H           0.86650220569466     -0.12498216048411     -1.66763135698655
  H           0.64520639191620      1.91447868134801      0.63492520180264
  H          -1.34880752821002      1.19743670856161     -1.59506135728737
  H          -1.65354043204205      2.25460068498062     -0.14691740297258
  H           1.46067840868766     -1.04250956889768      1.93388502882814
  H          -0.03687415023027     -0.27852631833825      2.10221229406479
