16
Coordinates from ORCA-job NEB_product E -30.318965786140
  C           2.76485102860190      0.98504010203598     -0.91292323811211
  C           1.51909843516153      0.16647000196957     -1.21386610903029
  N           2.83819207574777      1.36913074088622      0.47254206179020
  H           3.64964976650871      0.38968910902546     -1.16553890417697
  Cl          1.53610880483196     -0.55853971471982     -2.82190281844539
  C           2.74978023468068      2.22627361533000     -1.83895031007685
  C           1.59883865578559      3.13585587942925     -1.56662733134317
  C           0.62193905808502      3.34508476041103     -2.42958214225313
  O           0.59657486279681     -0.00134890950093     -0.48929745572756
  Cl          4.27743681165201      3.12385894447524     -1.58341315296584
  H           2.75222663890459      1.89776328844066     -2.88080463595971
  H           1.61793243305962      3.63526923147189     -0.60889611434328
  H           0.60092432093042      2.86351143902474     -3.39351093940148
  H          -0.19843937065968      4.00365419312796     -2.20466851848554
  H           3.03006577750186      0.57014364045591      1.06423961564174
  H           1.96542046641121      1.78474367813684      0.77869999288941
