17
Coordinates from ORCA-job NEB E -30.250773401520
  C           0.87105255338286      0.26141076781910      0.43599084834842
  C          -0.09890851400428      0.39509756603275      1.43527784131871
  Br          2.50229827581179     -1.17644842563273      1.38364089037018
  H           1.60977246036992      1.03631502558959      0.30419734708754
  C           0.28440584529094      0.86937897693240      2.70675574407857
  C           0.47064569795121     -0.42482073610550     -0.87232576232119
  C          -0.96151964284250     -0.11192928224009     -1.02617292851954
  C          -1.89755718819105     -0.28044369498954      0.09301683278039
  O          -1.36834914236613     -0.04555345566239      1.36878486542773
  N           1.32581707812673      0.02632429215306     -1.94369429897504
  H           0.65600423939493     -1.50259299072419     -0.72697421889930
  H          -1.33988596405388      0.25199717429653     -1.96554809133924
  H          -2.29247992267808     -1.31037571397986      0.11104064223031
  H          -2.76497628786227      0.38420286686393     -0.00940321459921
  N           0.60636399999166      1.32633503153893      3.70974278516532
  H           1.04094478420625      0.93301882134862     -2.29454671851480
  H           1.35637172747191     -0.63191622324058     -2.70978256363884
