17
Coordinates from ORCA-job NEB_reactant E -30.303356773140
  C           2.06400228383577     -0.77803104712316     -0.43996369953852
  C           1.26342451547455     -1.80734148506147     -0.11442885250424
  Br          1.95284138039390      0.41771740062536     -1.89470888205495
  H           2.90705002503963     -0.55987835270851      0.19597204118202
  C           1.66921565100105     -2.49349009086986      1.07431060910978
  C           1.51363786298191     -3.19303563424191     -3.01635858732386
  C           0.59280457417090     -2.23147502644376     -3.04863758798324
  C          -0.33315489555245     -1.92296555550550     -1.90936939727377
  O           0.15475611788974     -2.34719249264344     -0.64357148420084
  N           2.30864411431660     -3.55760749578926     -4.07923238674208
  H           1.64543782377028     -3.80674105109635     -2.13418114982873
  H           0.45501309840288     -1.62589226121806     -3.93125754635165
  H          -1.27516303422334     -2.47610397100467     -2.00975980547689
  H          -0.57357989311488     -0.85353262685373     -1.88863382831923
  N           2.01904542489021     -3.04587911857511      2.01372099775069
  H           2.33761433521258     -2.89826251768261     -4.84199364722834
  H           3.20191061551066     -3.96358867380798     -3.85350679321616
