17
Coordinates from ORCA-job NEB_product E -30.292133540600
  C           1.81990562880852     -1.23242764282036     -1.13356652771248
  C           2.81894309562109     -1.86175565415234     -0.18136325975163
  Br          2.78418812565362      0.00685846891697     -2.29116241479780
  H           1.08802905281248     -0.63801305872650     -0.57939510708924
  C           2.15482750929821     -2.75158685961976      0.75970571649528
  C           1.10601794037762     -2.33983759620968     -1.93480086846848
  C           0.17662886524732     -1.75806554416348     -2.96772647966397
  C          -1.13761318341745     -1.85842707814540     -2.90845529125749
  O           3.99733184942227     -1.65530710782058     -0.17771748405575
  N           2.13130158342124     -3.21875313550238     -2.47370722190697
  H           0.51946085774160     -2.92593834996442     -1.21293465011210
  H           0.66105829511927     -1.26143452724012     -3.79799852340620
  H          -1.63434982703313     -2.35450144148415     -2.09007850138318
  H          -1.77169382230013     -1.44849288486996     -3.67533478877683
  N           1.61464702410863     -3.43060426996068      1.50520071578636
  H           2.71767100071559     -2.71780013953341     -3.13598474201069
  H           1.71344600440326     -4.00361317870375     -2.95898057188881
