24
Coordinates from ORCA-job NEB E -44.987155857640
  C          -0.03042733739058     -0.86266813603582     -1.03102314566918
  C          -1.40431711911036     -0.59324758752632     -0.92807491009009
  O           0.38047594771180     -2.14921871134318     -0.90693305224344
  H           0.58441189087873     -0.30717730084058     -1.72627031672608
  C          -1.90476564491847      0.75485674156076     -1.43476481456036
  C           0.56236985940869     -0.10350408034362      0.77032996216925
  C          -0.59641423080767      0.01788285349000      1.54068940627479
  C          -1.47837689492829     -1.05067434026923      1.65938902257279
  O          -2.10157520564314     -1.22105941569101     -0.06320000843144
  C           1.39268771516377      1.12291479767977      0.48838048634831
  H           1.14212444968121     -1.01099449351100      0.90089982004919
  H          -0.99506216725933      1.01393075884843      1.68832904116650
  H          -2.41589504038858     -0.90937348346530      2.17289006685677
  H          -1.08409468464833     -2.05610565472169      1.71143194986732
  H          -0.34798821599499     -2.66316024910467     -0.52390895912865
  F          -3.18388179543663      0.70543388429894     -1.81126221810829
  F          -1.81570659240706      1.74707579570711     -0.52251466705564
  F          -1.19636608895365      1.17771091972023     -2.49782381073894
  C           2.76915380043270      0.79266886375448     -0.07625583257824
  H           1.51559745999737      1.67054906815433      1.42732018558458
  H           0.85582744778043      1.78726834416762     -0.19213952969633
  H           3.33361577803755      0.18714920069326      0.62935303097792
  H           3.32640545271988      1.70684301299883     -0.26418970389396
  H           2.69220121607496      0.24289921177863     -1.01065200294676
