33
Coordinates from ORCA-job P E -47.886015799960
  C          -1.69400338385500      0.17971144488773     -1.96266527944682
  C          -0.10345356432318     -1.75512536708843     -0.83209265235830
  C          -1.58601725179206     -1.97148365430648     -0.85093504745795
  C          -2.35790445559818     -1.05614729409353     -1.41227718243330
  C          -0.76625830159124      0.72567481410532     -0.85833900065412
  C           0.25353139406177     -0.32373597291353     -0.37845439405557
  H          -1.96963804087746     -2.88642720467125     -0.42797178666505
  H          -3.42932698723666     -1.15527218133218     -1.47674033230756
  N          -2.56671055853395      1.21815312166717     -2.47279777437404
  H           0.38099468318826     -2.48298247388992     -0.18027900701761
  H          -1.04629593548492     -0.11697438379168     -2.79436803307809
  H           0.27573925074165     -1.91216331457172     -1.84929673562853
  H          -1.37285287666888      1.02534720698100     -0.00458131627635
  H           0.26632592709255     -0.31919206848486      0.71921795441463
  H          -0.27226638882352      1.62035102207129     -1.24122061046968
  C           1.66456002323143      0.04251479274297     -0.80941631486361
  C          -3.31605010098286      0.90691733000812     -3.69790227012895
  C          -3.40715749507994      2.18963456321473     -4.53151768495445
  C          -2.69843683900590     -0.18724443186819     -4.56665736690020
  C          -3.41635964632652      1.81211875335077     -1.45780391282090
  H          -4.33854377098937      0.58069109028405     -3.43470190823025
  H          -2.40826686998280      2.50043387829710     -4.82515318426946
  H          -3.86224730978582      2.99941133694088     -3.96888809145579
  H          -4.00109221805820      2.01703248143599     -5.42534316230467
  H          -1.69466059488941      0.08727277032297     -4.88219598298237
  H          -3.31070970429212     -0.30588325740954     -5.45772958374544
  H          -2.66598617475422     -1.14537947304438     -4.05362591724392
  H          -2.82262464191965      2.45918408178834     -0.81257688813961
  H          -3.92926857495053      1.06626350062415     -0.83354864798711
  H          -4.17324770131247      2.43048518702280     -1.93230043327976
  Br          2.21051375362446      1.75542724130894     -0.02323438086203
  Br          2.96957743072654     -1.28842656730864     -0.20734533673313
  Br          1.83714692444820      0.20220302772001     -2.74291773529004
