33
Coordinates from ORCA-job R E -47.816839135970
  C          -1.21196474489629     -0.35312560854257     -2.76439332621380
  C           0.26335778355638     -2.73102870428286     -1.62253690979187
  C          -1.05756207288704     -2.58577870118846     -1.72831451435247
  C          -1.78942688711505     -1.43464097176851     -2.19905991162204
  C          -1.66084936954360     -0.32232923953553      0.47819513113727
  C          -0.38074420040759     -0.05400146533154      0.66828179830910
  H          -1.68465082577227     -3.41406524131416     -1.41776024659565
  H          -2.86319332370224     -1.50356243537601     -2.10716302373075
  N          -1.79107914594835      0.80436493820402     -3.17835876538927
  H           0.69478392849278     -3.64767596708088     -1.25996419969210
  H          -0.13748457369494     -0.36047497497491     -2.88484579265608
  H           0.96279821321215     -1.96184328781675     -1.90127820726086
  H          -2.05066508550267     -1.29655722959083      0.70824866778335
  H           0.30276348275960     -0.81008155243449      1.03334712641696
  H          -2.36233717262789      0.40930520591635      0.11453035353922
  C           0.27749638066082      1.23899638930814      0.39833734850406
  C          -3.23830435285443      0.93637338571083     -3.20649521908204
  C          -3.68292950862438      2.39336120780289     -3.09901902652930
  C          -3.83164278673029      0.27778476379878     -4.45716950580114
  C          -1.01446577283141      1.73410913505628     -3.96232686392273
  H          -3.61401879602127      0.41015540538613     -2.32255771254279
  H          -3.45494242006575      2.94496819432355     -4.00668317317704
  H          -3.20025404994823      2.88225568896057     -2.25605278549580
  H          -4.75832728862639      2.42624685774158     -2.94514503403265
  H          -3.51855555866550      0.80789215253810     -5.35346583890634
  H          -4.91712450475542      0.29432031189499     -4.41026787154067
  H          -3.49933054839673     -0.75494994943247     -4.53055101819119
  H           0.03577577262632      1.45273356925377     -3.92886014606053
  H          -1.11067546871712      2.74368503850850     -3.55949881924476
  H          -1.33217227214026      1.74160167948609     -5.00931847893124
  Br          1.09781833389481      1.92875325176458      2.06800376291437
  Br          1.72646836967073      1.00197873221701     -0.90837952746242
  Br         -0.88669153439851      2.61654942079779     -0.28613827037878
