33
Coordinates from ORCA-job TS E -47.804638407930
  C           0.32234853271960     -0.42571612117294     -0.55638860349039
  C           1.96704790810948     -2.22585774840900      1.00839088457107
  C           0.75185728100329     -2.57710533870360      0.49455798757693
  C          -0.06075093640264     -1.71657553999534     -0.25370211781966
  C           0.32114727636383      0.14260688623870      1.71550153189369
  C           1.27957140401385     -0.57268471526898      2.37881501588416
  H           0.30238151463512     -3.50307679194585      0.82817822222840
  H          -1.05981369797682     -2.05647879369061     -0.48175538602113
  N          -0.41411615341111      0.51725303392330     -1.18283265504657
  H           2.49019404650010     -2.93008821359096      1.63480887886593
  H           1.37621725812912     -0.19419980096719     -0.53411502632248
  H           2.59169093434578     -1.50459994588818      0.51154223782245
  H          -0.71234785485453     -0.13091788655569      1.80814248250937
  H           0.99172787310642     -1.35306218448534      3.06860522601375
  H           0.53127601410966      1.12696209561816      1.33570430048855
  C           2.57060560154706      0.06822442936141      2.70242949717987
  C          -1.86242817449268      0.43950142932339     -1.27708850969238
  C          -2.54153555043707      1.71778763118052     -0.78292296161052
  C          -2.28954739606463      0.10559550219932     -2.70885733875299
  C           0.22382946127796      1.74532364358375     -1.59121686847968
  H          -2.18082974524728     -0.37563233005421     -0.62147925514114
  H          -2.35645279724010      2.55309756046846     -1.45245033020444
  H          -2.18875591461525      1.97754145416136      0.21241911068242
  H          -3.61512950134404      1.55605116376185     -0.73216462504068
  H          -2.02915664278135      0.91249338005100     -3.38926668823339
  H          -3.36476689705146     -0.04493995766983     -2.75252100660914
  H          -1.79514831266859     -0.80276443011331     -3.04422914835472
  H           1.28785370981921      1.57565991855987     -1.74379333230091
  H           0.10812081816319      2.53689267887682     -0.84353677936542
  H          -0.20507208227922      2.09154972308051     -2.53067485947807
  Br          2.28703214538108      1.43248131585403      4.17311328607236
  Br          3.92637115132977     -1.14900151895517      3.38380991499026
  Br          3.34657872631224      1.06367947122376      1.22297691518452
