24
Coordinates from ORCA-job NEB E -32.286953152100
  C          -0.02449579059238     -0.50237347017359     -0.42046109662955
  C           1.00943434424278     -0.00591803955266     -1.27324895871986
  O           0.32375632074650     -1.42470277713836      0.59376625608010
  H          -0.91189652985973     -0.86077230650082     -0.96421752960540
  C           0.84742649502466      0.21129568190122     -2.74521113079619
  C          -1.01372662545044      0.73337046753599      1.69967375254439
  C          -0.25533984567012      0.91972403312527      0.53341995589994
  C           1.26955182630216      1.15958108840072      0.64380187260908
  O           1.78169556827654      0.93593750349559     -0.64991280920863
  C          -2.40883855589537      1.24748361006644      1.81435979319488
  H          -0.67548359770367      0.02467575698964      2.43616784925103
  H          -0.70605602756811      1.63174922768393     -0.16514226256203
  H           1.66643661037490      0.42505118943325      1.35178073361001
  H           1.54942676698688      2.16901559049320      0.94671155915902
  C           0.76472983803979     -2.66573314891330      0.09577432473527
  H          -0.08150607038823     -3.31020804073709     -0.17314139105858
  H           1.33555416905266     -3.13799196786648      0.89391000780026
  H           1.40499946080302     -2.53481904194137     -0.78252363633385
  H           1.81203555466889      0.49938210020174     -3.15458635177306
  H           0.13803627894331      1.01650224922266     -2.95629654256011
  H           0.49789993130143     -0.69163948529857     -3.23898454470603
  H          -3.06801735237898      0.79488408746464      1.06816043051076
  H          -2.43705961652616      2.32661963555140      1.64779530074691
  H          -2.81856315273035      1.03888605655657      2.79840441781158
