24
Coordinates from ORCA-job NEB_reactant E -32.340716806850
  C           1.58178891455190     -0.18610670285412     -0.22323754094757
  C           1.93764815276321      1.06936480825379      0.04870842669415
  O           0.88325591136887     -1.04206430536318      0.61042485790339
  H           1.88294326624771     -0.61925578956887     -1.16988379593895
  C           2.77124565676427      1.86202859431042     -0.91819139954702
  C          -0.36113372494385      2.68099892132401      3.86046311314680
  C           0.75280644364065      2.26806792887272      3.28088572935272
  C           0.80959539312965      1.28584516283993      2.15377890966213
  O           1.67475275875038      1.81234358808562      1.16173455728749
  C          -0.41844418696090      3.64039939147710      5.00145177019145
  H          -1.31794745525974      2.30612637706788      3.51866223157207
  H           1.71594689319474      2.63775946898714      3.60410058802358
  H          -0.19028100196305      1.11449587339005      1.73639560527664
  H           1.20068094497741      0.32405216006673      2.51261426488685
  C           0.11758207699906     -2.00309542987094     -0.06976793849908
  H          -0.29522022058099     -2.66348605472553      0.69099784530064
  H           0.73589776227221     -2.58644868733101     -0.76255707901339
  H          -0.70139712086632     -1.53980057378782     -0.63275630801230
  H           3.71730482213696      2.13100004014976     -0.45197889541490
  H           2.25380979409617      2.78470890684664     -1.17351689211518
  H           2.96606024318189      1.29445761403071     -1.82174129770811
  H          -1.02147869858395      4.50729806155330      4.73290456306870
  H           0.57724322461837      3.97601465648743      5.27893756344532
  H          -0.88605984953464      3.16989598975825      5.86617112138458
