24
Coordinates from ORCA-job NEB_product E -32.350628163750
  C           1.03075281110866      0.56505396518313      1.59277831501762
  C           1.60445182579343      1.17753780819159      0.30890488173223
  O           1.97116237396461     -0.25785069159468      2.24633222581942
  H           0.12323667840027     -0.01673935171491      1.35458883910741
  C           0.64749558270817      1.23126759752468     -0.85423734760571
  C           0.67866469371232      1.71750088086829      2.56300840628291
  C          -0.30055643394830      2.66372615269916      1.93843984678795
  C          -0.03802745412738      3.92142434520417      1.63754085053324
  O           2.73589108435645      1.58058420527072      0.24789408777084
  C           0.10497413393104      1.14812196448246      3.86073663803089
  H           1.61553535617304      2.23813148546224      2.77911565239079
  H          -1.28821490246301      2.25296311797372      1.76364579155126
  H           0.93493983322283      4.35055206621606      1.80920600027987
  H          -0.77855395964539      4.57325625438528      1.20542422562260
  C           2.32117141013943     -1.40834152813312      1.52124404135744
  H           2.98928624748931     -1.97995558472679      2.16217421704534
  H           2.84047399108783     -1.16123841118623      0.58873524211056
  H           1.43500238882772     -2.01351986696114      1.28605671694734
  H           1.09762717671967      1.77300365576562     -1.68169898248760
  H          -0.27518522976187      1.71921221022899     -0.55004721629483
  H           0.40987753479800      0.21749457260347     -1.17251921687580
  H          -0.83266177273093      0.62981817387431      3.66871465405877
  H          -0.08079072471466      1.95371210904773      4.56687166210554
  H           0.81064735495873      0.44768486933524      4.29679046871192
