20
Coordinates from ORCA-job NEB_reactant E -37.789908062850
  C           1.94875464819894      0.17355312156407      0.00957228844949
  C           1.68256046665010      1.21705456665387     -0.79168047448464
  C           1.67513626837562     -0.05607839063278      1.45789538793331
  H           2.42078531982279     -0.67266849162574     -0.46170601099835
  C           2.03501047204778      1.13437784721463     -2.25267422253126
  C           2.27317488963495      4.91070476347134      1.44670608484516
  C           2.17585836758262      3.61658959596356      1.21533540422463
  C           0.91421472229438      2.97492078781370      0.72518930502076
  O           1.10064925828833      2.40634271169137     -0.56474974105600
  F           3.41203665491570      5.46891744746327      1.88137006322672
  H           1.48307232963949      5.63993939415073      1.33629155694297
  H           3.03187186143128      2.97499927731417      1.36017210303692
  H           0.13823137730657      3.73097567674147      0.57816596530883
  H           0.54764429759987      2.24362446955850      1.44614206836757
  F           2.33008557583154      0.80840927251810      2.28934442725169
  F           0.35242566099579      0.07773759903907      1.78133854244945
  H           1.97131712562748     -1.07015733383454      1.76264320383594
  H           2.86988465811544      1.80159735843233     -2.45963595916353
  H           1.18715228275940      1.47424327119157     -2.84226023078363
  H           2.30173376288193      0.12521705531129     -2.54465976187602
