20
Coordinates from ORCA-job NEB_product E -37.797346378240
  C           2.54534921217632      1.26332431745979      0.44057399581436
  C           1.51425937545267      1.05745169067437     -0.66999400305103
  C           2.31225956847370      0.25070215583983      1.57075673774982
  H           3.54818659432548      1.05736666586187      0.04833017357435
  C           1.92423566606020      1.57620632075740     -2.01983962948971
  C           2.54467464043308      2.73987837654056      0.91768096981196
  C           1.27629466127863      3.16581230590533      1.59563555985621
  C           0.18910716170428      3.52347046714721      0.94062865544332
  O           0.47958014371269      0.48077909364348     -0.47199529189549
  F           3.61503333300082      2.91699445875304      1.76388052681941
  H           2.75026726062176      3.38326228827207      0.04995972926721
  H           1.31269631786295      3.15524862152009      2.67413492205833
  H           0.14134990760017      3.53383700121987     -0.13628802641802
  H          -0.70671006231301      3.81036296075975      1.46065432923906
  F           3.45136785075406      0.06232774024438      2.27787160093903
  F           1.37488944542280      0.63393735584473      2.45793639971926
  H           2.00378564302190     -0.72735075374479      1.16690342648503
  H           2.42751856419117      2.53600182620351     -1.95442300648377
  H           1.05442642214690      1.64997665860652     -2.66712578607397
  H           2.61912829407341      0.86121044849099     -2.45958128336536
