22
Coordinates from ORCA-job NEB E -36.511919298300
  C           0.30556836255091      0.47275359194642      0.76408492896467
  C           0.36290430991985     -0.53536750838312      1.70709183675107
  O           1.40072210655375      0.71282234758724     -0.04416260458142
  H          -0.30858483046379      1.34702450163890      0.97587728699338
  I          -1.31598564621626     -0.45054400009711      3.12022042613709
  C          -0.77306411413818     -0.63643255409576     -0.74723576471128
  C          -0.75628990287447     -1.94813455834671     -0.27770713007083
  C           0.44982517274035     -2.53874453996263      0.06833092243156
  O           0.95213411629620     -1.61674096464020      1.59346155486069
  O          -1.96239845291534     -0.02632068241097     -0.88067923713173
  H           0.02674858548718     -0.30517397747058     -1.40433050938034
  H          -1.67532071930434     -2.32186691380877      0.15335225298358
  H           1.34280566128447     -2.25467268704813     -0.46952899191719
  H           0.45274950821827     -3.53393973649572      0.48331311239870
  C           2.20475512960366      1.78352976076848      0.40772949901897
  H           2.97806276156276      1.92244301808716     -0.34491048813508
  H           2.66725551698324      1.54986463269247      1.37176946811394
  H           1.61667106577233      2.70327555109102      0.50795314361107
  C          -1.97677535472204      1.18325661345514     -1.60687542131346
  H          -1.36480345058661      1.94707849349640     -1.11848076792032
  H          -3.01393010625063      1.51126198643793     -1.63119868820340
  H          -1.61304971950127      1.03462762555854     -2.62807482889968
