22
Coordinates from ORCA-job NEB_product E -36.550752453360
  C           0.57517586665441      0.23149047797342     -1.43652615131103
  C           1.15642822337219     -0.88059929341397     -0.59053050515942
  O           1.59982742607704      1.01157513844459     -1.97653055004899
  H          -0.13103053988884      0.83958440809935     -0.85265019168222
  I          -0.04945164445667     -1.33032296107053      1.16235254269212
  C          -0.19487546514683     -0.39977251922926     -2.62574462838835
  C          -0.92921855337377     -1.65159127805563     -2.22354248329333
  C          -0.53521759706545     -2.87087925349285     -2.53888604119764
  O           2.15156156066154     -1.48026710543841     -0.77792234234254
  O          -1.07696070850808      0.60176758668103     -3.08139737408873
  H           0.55821660748626     -0.62930446416398     -3.39630471496055
  H          -1.83778993166714     -1.47801223155008     -1.66243514404792
  H           0.36474419712161     -3.04739367764818     -3.10570604705558
  H          -1.08592840369536     -3.74186402343944     -2.22790305250220
  C           2.18525967998798      1.91028455508104     -1.06048875763425
  H           2.90265515152548      2.49534440993349     -1.63115172851922
  H           2.70767839932660      1.38300941532900     -0.25445463112424
  H           1.43067228269921      2.57532622233789     -0.62559156461606
  C          -1.57811371974221      0.35910025056060     -4.37365089492309
  H          -0.76598726185773      0.31487006969117     -5.10859241408635
  H          -2.23411978939839      1.19529095950840     -4.60502564953270
  H          -2.14642578011184     -0.57693668613766     -4.41521767617772
