21
Coordinates from ORCA-job NEB E -44.849882931750
  C          -0.47712488298723      0.49981444768403     -0.98100236114325
  C           0.57361035739523     -0.32424014417115     -0.51974284839392
  C          -0.20693717490094      1.89600895164198     -1.42374830657695
  H          -1.16531197313417     -0.01353862231046     -1.64080543026679
  O           1.72373329231862      0.25475567375641     -0.15729892339731
  C          -1.82809294588319      0.36822214231058      0.61261480983590
  C          -1.34396853041581     -0.68007682019597      1.38953294492095
  C          -1.07059300725146     -1.89383532920934      0.75741081792629
  O           0.36560503573495     -1.54633420881834     -0.25515909881157
  Br         -2.03896538153128      2.04704230730265      1.46863231219457
  H          -2.63758853625038      0.19937478979665     -0.08258646205451
  H          -0.79562393338958     -0.43353390819913      2.28891708289992
  H          -1.71632638972840     -2.21068953803385     -0.05044105475594
  H          -0.65573519415416     -2.70345893953648      1.33865245965432
  Cl          0.81168689067282      1.85342130569254     -2.91991395293939
  Cl         -1.73018563748617      2.70633172644286     -1.85977515448569
  Cl          0.64901500661461      2.88295856002880     -0.23702328830905
  C           2.69718734545283     -0.57714608089697      0.45308476985596
  H           2.93929440996224     -1.42273265274784     -0.19410193928866
  H           2.33563385464213     -0.95474029857026      1.41193272249126
  H           3.57068739431933      0.05239663803329      0.60082090064386
