21
Coordinates from ORCA-job NEB_reactant E -44.887018014620
  C           1.23813048577984     -0.40236218094892     -0.09991130311702
  C           1.93424669149096     -0.76565103605701      0.99552933270749
  C           1.91383625810785      0.10738530970680     -1.30732558309497
  H           0.16792600453721     -0.46766135237730     -0.13893739634964
  O           3.26500118139263     -0.66942347334716      1.00827613426243
  C          -1.13795629267603     -1.37380314573723      4.45080008584436
  C          -0.29319197410871     -1.93377633949689      3.60368924407995
  C          -0.00057285254584     -1.37234989409980      2.24756444435177
  O           1.40730292328443     -1.24047429832241      2.14021297388691
  Br         -1.51317005023664     -2.11069233804855      6.14343165196220
  H          -1.69361385005582     -0.47245648318343      4.24440104076463
  H           0.24627975386022     -2.83332854473992      3.86123238801387
  H          -0.48480835816733     -0.39798051809383      2.11135470256973
  H          -0.36441352880354     -2.06467710024999      1.47488198119892
  Cl          3.06450286166198     -1.08776567186194     -1.98753324240007
  Cl          0.72550784170771      0.49050084385916     -2.56056722088902
  Cl          2.85645154287798      1.59570136944349     -0.97009678404580
  C           3.95570516102038     -1.06817381086786      2.17991734469694
  H           5.00736895739534     -0.89494600370848      1.96382525508666
  H           3.78673204107567     -2.12552708148893      2.39420627349899
  H           3.64633520240171     -0.47193825037978      3.04084867697167
