21
Coordinates from ORCA-job NEB_product E -44.912421361680
  C           1.22802016723408     -0.85776591398727      0.97150231225514
  C           2.47439285305901     -1.42369742487949      1.67461230194113
  C           1.49889220588588      0.35024306433184      0.08427233946391
  H           0.85885972540099     -1.65682450308877      0.31502376534903
  O           3.43015404410793     -0.52746111889095      1.81880096489191
  C           0.13705480167720     -0.60717054216567      2.02807862365214
  C          -0.56154055352535     -1.87176634247907      2.39703567686152
  C          -1.87519307911872     -1.99898679862386      2.38534365841043
  O           2.51904317472367     -2.56048964519232      2.05583716984074
  Br          0.91308971918488      0.15201470407409      3.68094989718149
  H          -0.56768616072947      0.14890234203733      1.67624607253470
  H           0.08776439822392     -2.68401667754442      2.69335486545827
  H          -2.52418824078008     -1.18724298086651      2.09870223770496
  H          -2.35313672604519     -2.92190241171248      2.66189931907737
  Cl          2.79834468487137     -0.03942950161979     -1.06948967517799
  Cl          0.02292345343002      0.70678059962411     -0.86965887321112
  Cl          1.93489517591796      1.81136627284423      0.97504645349235
  C           4.58568572553984     -0.93545283789619      2.54416954859656
  H           5.34811502897431     -0.18802324913465      2.34262238873230
  H           4.90893368364871     -1.92408774646673      2.21469957428737
  H           4.35497591831905     -0.96648928836344      3.61045137865778
