24
Coordinates from ORCA-job R E -27.597909225810
  C          -1.13124250982612      0.08077075191422     -2.69351495513028
  C           0.22601715784723     -2.58565543629814     -2.16452518553942
  C          -1.05713398983628     -2.29459536569088     -1.96739034963316
  C          -1.71933889713717     -1.04027067008731     -2.27851439579333
  C          -0.60343716673496      1.96369460616626      0.46087378342167
  C          -0.56076879205441      0.63733759516107      0.48772185179443
  H          -1.69793631277095     -3.04961827345816     -1.52799571059322
  H          -2.79194260513606     -1.03746096875707     -2.12846144288242
  C          -1.84679782616409      1.36007749017337     -2.96486347934009
  H           0.63353001824360     -3.54511846355501     -1.89540863833887
  H          -0.06105576744688      0.11446093978213     -2.84673082896684
  H           0.91373127919789     -1.89042958028911     -2.61610681400325
  H          -1.50194529643676      2.49956795548054      0.70141079513088
  H          -1.44036762016561      0.05779853366945      0.73282735234101
  H           0.26759150771966      2.55170315280833      0.22426291425701
  N           0.57588332538561     -0.12561287667307      0.30511190159669
  C          -1.51052617850748      1.90850849055731     -4.35114857083721
  H          -1.54275698901230      2.09055553426118     -2.20762519003997
  H          -2.92457119785227      1.21239204579411     -2.87422527626058
  H          -0.44099026391742      2.08482303712360     -4.44365976012286
  H          -2.03017411386509      2.84769655214917     -4.52468988274193
  H          -1.80938404775598      1.20025393337389     -5.12101937184376
  H           1.35151511094348      0.37745685286366     -0.10116573787329
  H           0.43094117528237     -1.03443583646954     -0.10904300860124
