24
Coordinates from ORCA-job TS E -27.577903456210
  C          -0.58076609448347     -0.00722921685112     -0.75722218276378
  C           0.63844088027339     -2.25885358060699      0.54952633930827
  C          -0.68744135807000     -2.20315542832910      0.28008862188813
  C          -1.28883288858285     -1.12610329799232     -0.39989481303910
  C           0.03028266259219      0.68895725639677      1.19235354286643
  C           0.85233229756813     -0.20276819686538      1.82478461983278
  H          -1.34603874822808     -2.92738148909772      0.74249371291134
  H          -2.36980496834865     -1.08330726999702     -0.41666200145653
  C          -1.27671226734979      1.16562227434219     -1.39902711304404
  H           1.03895232534547     -3.04524115986673      1.16970192097918
  H           0.46109578212568     -0.11194312175529     -1.02144009595490
  H           1.35739309546589     -1.72784125209028     -0.04695012192026
  H          -0.98197967567658      0.79404873247021      1.53612233924719
  H           0.47914232256266     -0.86196611652298      2.59084654961225
  H           0.47091760701085      1.55821375236758      0.73576052082985
  N           2.23462885317769     -0.07706600913763      1.79503787320434
  C          -0.31204932200540      2.17554028120072     -2.00951548300549
  H          -1.91415268551054      1.66518177100023     -0.66497020191023
  H          -1.93672918255617      0.78959669662432     -2.18719369623688
  H           0.33307392260453      2.61039493438644     -1.24912649234200
  H          -0.86059464694867      2.98390550262304     -2.48818114682075
  H           0.31507400736752      1.69785478577217     -2.75977912888817
  H           2.58941214527315      0.42227866115913      0.99176574673803
  H           2.75435593639306     -0.91873850923027      1.99148068996434
