20
Coordinates from ORCA-job NEB E -54.476952863280
  C           0.86389476597453      0.42073969225139      0.28622499978941
  C          -0.02286521196496     -0.41079827237365      1.01300347168173
  C           0.68360897011629      1.91604120743885      0.50012127055842
  H           1.92270333052836      0.17850584855997      0.35982942753037
  C           0.46672080856026     -1.80730567619979      1.37284608634481
  C           0.36437252658794      0.06471478695377     -1.47788117290259
  C          -1.02110925043065      0.30486137131612     -1.47441959961673
  C          -1.84102462587044     -0.47174342698380     -0.59946636409114
  O          -1.30447729902820     -0.24429648294924      0.88967990328875
  Cl          1.35011067581409      1.05006213339439     -2.53216804541860
  H           0.70841506044215     -0.96537174666164     -1.51229760168262
  H          -1.38310511100025      1.26258009415415     -1.81593264092908
  H          -1.74420574566091     -1.55187499155446     -0.68626856809756
  H          -2.87496726837094     -0.15451728201404     -0.52777230875012
  F           1.58710348054556      2.64125406826089     -0.16361235813420
  F          -0.51581558859930      2.39445514788396      0.17351563240924
  F           0.86697595652266      2.19955340318391      1.79972539432289
  F          -0.26642715302127     -2.38021749515940      2.32076923334357
  F           0.41851545636140     -2.63780746292678      0.29711959923101
  F           1.74157622249369     -1.80883491657461      1.77698364112245
