20
Coordinates from ORCA-job NEB_product E -54.504476782800
  C           1.77635071856708     -0.36483732138686     -1.73386920816638
  C           1.01579914804429     -1.01292293618472     -0.59055464865140
  C           1.85356538158503      1.15186815322633     -1.48542136089404
  H           2.81387625400309     -0.71622750153960     -1.76068069575211
  C           1.54083657273549     -2.44053982571852     -0.24065603761629
  C           1.06880952043055     -0.77850959023369     -3.05555949392404
  C          -0.41198590612057     -0.57264763464061     -3.04267153411570
  C          -1.26379897175527     -1.57235821537022     -3.18031572456167
  O           0.08370155577917     -0.54717638365774     -0.01625545114527
  Cl          1.78828648528598      0.14072894401259     -4.42698919085803
  H           1.30026482285046     -1.82933749413200     -3.24889247545955
  H          -0.75559949762179      0.44449013572201     -2.93679847033102
  H          -0.93515536680151     -2.59265531840091     -3.29414448950913
  H          -2.32600568794260     -1.40527931669609     -3.18047669207283
  F           2.79764743731721      1.72668855888766     -2.23162501942604
  F           0.71975720396455      1.80816144785927     -1.70537671391544
  F           2.19918942518961      1.38391091461473     -0.20896186049407
  F           1.33133971672435     -3.28169110817413     -1.26760370310590
  F           2.85963201844351     -2.43104551976387     -0.01354965124075
  F           0.94038916932139     -2.94551998842364      0.82510242123968
