20
Coordinates from ORCA-job NEB_reactant E -54.510033671090
  C           1.86066460880217     -0.07805583614788      0.02477420846922
  C           1.23147938247526     -0.93887257499248     -0.78634445869332
  C           2.02928096630875      1.35586421171296     -0.36961897529838
  H           2.27271447154952     -0.36563785515914      0.97475593499654
  C           1.08481293299394     -2.38880080171216     -0.34232796431520
  C           0.01775214274617     -1.07271631320482     -5.27167030611154
  C          -0.29099448949160     -0.63647372725897     -4.06139885060793
  C           0.00128979972337     -1.41577482714185     -2.81743381259663
  O           0.75513716428967     -0.54707588622276     -1.96508384948163
  Cl         -0.33783302316238     -0.18964231994049     -6.69177268794164
  H           0.49568367220710     -2.02352213386274     -5.45686846484656
  H          -0.75653522104690      0.32484993555035     -3.90863421510674
  H           0.56765387557793     -2.32141591965716     -3.05513834274366
  H          -0.93978101878146     -1.68858399503471     -2.32253000117211
  F           2.78276973881970      1.50860480373614     -1.47018682666068
  F           0.86150426005421      1.96596029364998     -0.62621152247398
  F           2.62353678637801      2.05930542507831      0.60096584636215
  F          -0.19821088082056     -2.77588458047061     -0.28234340360335
  F           1.70182446360834     -3.23673509548267     -1.17940876871637
  F           1.60425036776875     -2.59769280343929      0.86627646054183
