17
Coordinates from ORCA-job NEB E -36.653206710480
  C           1.08980155538938     -0.10371956266419     -0.20878202417994
  C           0.52306584434883      0.79324657887834     -1.14543047256526
  C           0.92199252625847     -1.57169042614021     -0.47630494376493
  H           2.12163798867033      0.10348912508263      0.07332892030032
  H           1.03921875126374      1.74285585937088     -1.31517056671964
  C           0.08006627781414      0.50054714887414      1.31982562752772
  C          -1.25146780033088      0.28731876513172      0.93046222114846
  C          -1.74076528957592      1.02373584367331     -0.17031494349840
  O          -0.71229423591185      0.69594505579815     -1.46463230939179
  Cl          0.66435271815330     -0.30186677584153      2.75508790317853
  H           0.45620364041528      1.51868927706229      1.30461581223375
  H          -1.73546694371111     -0.63521113056428      1.21135025850404
  H          -1.59494601748805      2.09817552884277     -0.16066183693003
  H          -2.70180892556400      0.72420902606081     -0.56720590396369
  Br         -0.83583567330220     -2.17567324235716     -0.98384358905379
  Br          2.10533835565779     -1.95699050591085     -2.03875537846826
  Br          1.57090722791274     -2.74306056529681      0.93643122564294
