17
Coordinates from ORCA-job NEB_product E -36.693870849730
  C           1.84844163316606      0.56909834829361      1.56929065776209
  C           1.26234107065881      1.19580696318811      0.30116298539444
  C           1.51091125259905     -0.91175115975628      1.57332804517350
  H           2.94146931551483      0.65184358941668      1.53394206204883
  H           2.02035527759423      1.60262897877636     -0.39007837301715
  C           1.36002589397352      1.40611430090363      2.77823607463446
  C           0.04856666473172      1.01218799182324      3.37012633514817
  C          -1.04774861081718      1.73562348555180      3.23202701466056
  O           0.09327721984320      1.25901242885204      0.07270709858633
  Cl          2.62256667590733      1.35560065884149      4.06979098100923
  H           1.32215348137303      2.45073232463306      2.45270293807556
  H           0.04836487066189      0.11161356730706      3.96807613240502
  H          -1.06383622897669      2.64380710025632      2.65293635408163
  H          -1.97858321401752      1.42839482179077      3.67397025977831
  Br          2.41599970111034     -1.70536714068580      0.01023056419871
  Br          2.18536035535213     -1.82475737006164      3.15203637372746
  Br         -0.37266535867475     -1.32798888913044      1.39031449633284
