17
Coordinates from ORCA-job NEB_reactant E -36.702554581230
  C           1.50222004034203     -0.02431451086832     -0.16686299647293
  C           0.85587863422351      0.91769724364080      0.52725133806902
  C           1.99028413845238     -1.23657333712719      0.51448825988182
  H           1.67793417564891      0.08073003868084     -1.22305970225636
  H           0.48731536865330      1.81831465465284      0.05041583155469
  C           0.09028146538096      1.80176787553467      5.01720843504742
  C          -0.36692495060685      1.26531958795421      3.89808918412750
  C          -0.02003376428612      1.79510228301463      2.54213741470080
  O           0.64540595088669      0.75749081937777      1.83709504569708
  Cl         -0.30770650592226      1.19479346641177      6.56631071624926
  H           0.73130783619173      2.67071119249998      5.04048792501785
  H          -0.98997671652366      0.38374762270269      3.90964069294493
  H           0.63719440257909      2.67020556860230      2.61980453001510
  H          -0.93417104167262      2.07789767429818      2.00175442737211
  Br          2.88021787875944     -2.44276241003786     -0.71759975539444
  Br          3.26323931054878     -0.79123255490118      1.95687023779448
  Br          0.51663377734469     -2.22639521443612      1.37026841565166
