17
Coordinates from ORCA-job NEB E -39.498881270950
  C           0.98009593308583      0.50940898565397     -0.00816031614741
  C           0.13107903025759      0.98331277061753      1.00891885285621
  C           0.83117989701073      1.15986849438876     -1.35732372682733
  H           2.03564441411662      0.42237491617418      0.24682356522938
  I           0.91774145142243      0.87854485037540      3.01727548209353
  C           0.35338548571244     -1.35074984857779      0.04689140889486
  C          -1.03296514698077     -1.25461313541232     -0.10530087389758
  C          -1.76966510351788     -0.54285204225765      0.87348387051023
  O          -1.12464542649886      0.99345573286523      0.87870049469242
  Br          1.30869211871195     -2.43064923330783     -1.21354540269497
  H           0.75970420937153     -1.53049809054236      1.03772498139329
  H          -1.46891988327198     -1.41468589322701     -1.07920803845558
  H          -1.58198252069775     -0.78557363652518      1.91682925134660
  H          -2.81459898845908     -0.36173978659466      0.65705052246264
  Br          1.33079007910266      3.08215032952436     -1.10532273974266
  Br          2.08459455675416      0.47959334818014     -2.68219584957738
  Br         -0.94013010611962      1.16265223866523     -2.13264148213625
