17
Coordinates from ORCA-job NEB_product E -39.543163745770
  C           1.62827914125640     -1.51388622641094     -0.11506155469553
  C           0.89538396547103     -0.62492779487573      0.87086134510703
  C           1.33494636083046     -1.05221333842702     -1.53734146349327
  H           2.70723488299766     -1.38993832833603      0.04340266757295
  I           1.93163963818256     -0.46026955923484      2.76029374557242
  C           1.26704595796363     -2.97533077661006      0.25219870915793
  C           0.05563497101757     -3.54312369480675     -0.40346817146804
  C          -1.06223937577341     -3.78722934517655      0.25670034871922
  O          -0.14305764880088     -0.08792867538969      0.71699359790611
  Br          2.81886773825192     -4.16425005191972     -0.11017920979086
  H           1.15810146722498     -3.02538964875673      1.34026866968205
  H           0.15113207323323     -3.80015176777295     -1.44925942166418
  H          -1.17022260959506     -3.56169693736600      1.30529968577894
  H          -1.91972739192156     -4.20896135402817     -0.23574654765312
  Br          2.06074950106242      0.77752489729989     -1.71398738996024
  Br          2.24856910829272     -2.16503443811081     -2.84878449049304
  Br         -0.54473777969368     -0.97269296007788     -2.02699052027839
