17
Coordinates from ORCA-job NEB_reactant E -39.537783550140
  C           1.63172193055828      0.11748027478756      0.05260033321877
  C           0.96764671835396     -0.84484360638413      0.70816788298913
  C           1.95014408489283     -0.06009909188476     -1.37678769502139
  H           1.93944268153901      1.02496859119013      0.54242934530467
  I           0.52477006672646     -0.59078744382597      2.76508556389372
  C           0.25315501544770     -5.25753432536077     -0.37569417286430
  C          -0.29968931979989     -4.05738224461235     -0.36559722480569
  C          -0.01608996242886     -3.04593103279147      0.69957975545158
  O           0.58568137936519     -1.93220900644876      0.05819056464166
  Br         -0.10700350678259     -6.52880345112969     -1.71377694139823
  H           0.93185052060526     -5.61472932544058      0.38354550229173
  H          -0.96102817770780     -3.73295623384204     -1.15547968765309
  H           0.66157229915546     -3.45369142222593      1.45964520839576
  H          -0.95362705448494     -2.73109372625231      1.17879391489824
  Br          2.93533815873502      1.45840969928262     -2.07737246620027
  Br          3.03672678374415     -1.68625480666383     -1.68285661926663
  Br          0.31578838208078     -0.28194284839772     -2.46727326387565
