22
Coordinates from ORCA-job NEB E -37.801075455180
  C           1.14887415229788      0.36507111693667      0.25050264949018
  C           0.12829019205886     -2.38584236701347     -0.86681488885526
  O           0.79638122460671      0.33944315615732      1.45848290663420
  H           0.66863946898936     -1.44080349514600     -0.62330219116673
  C           0.28719981072465     -3.47075453711065      0.19582185748857
  C           0.69485012170316      1.49718522182186     -0.69829407100620
  C          -0.80736396050747      1.50402068576200     -0.84102947100731
  C          -1.44331662244392      0.76463757554366     -1.73092215991372
  O          -0.53437144427906     -2.50983711626015     -1.85311490411351
  C           1.17765770007719      2.76809532324972     -0.22823924322001
  H           1.15967507803420      1.29131680034357     -1.67028396079128
  H          -1.35083612987273      2.14845318809738     -0.16253197327148
  H          -0.92611276227764      0.11409544857146     -2.41555248669163
  H          -2.51723130148799      0.77706774097633     -1.80036573810685
  C          -0.02643388567188      1.27976517665856      2.18110263350249
  H           0.15114639287959      2.30260506712349      1.85184925919104
  H           0.24166998253402      1.17095575322805      3.23016954600876
  H          -1.07157777246875      1.00466202201905      2.03824795348490
  F          -0.92995030698092     -3.71367441864890      0.78446254724542
  H           0.97460610256503     -3.16000700647619      0.98656732566600
  H           0.61002271700871     -4.41084248419202     -0.26652704286645
  N           1.56818124251104      3.76438714835821      0.17977145229887
