22
Coordinates from ORCA-job NEB_reactant E -37.915213036250
  C           0.86575079248146      0.27479818123773     -0.46348043108599
  C           0.96867574146526     -0.51171744714231     -1.53315456346609
  O           0.43490542024002      1.57804665148870     -0.46149744134928
  H           1.11718922428765     -0.13938869557365      0.50443099838230
  C           1.37444280135585     -1.95977718461872     -1.41008672723598
  C           1.79570677594024      3.22149597440597     -2.71189480536908
  C           1.79596211349107      1.92621306334586     -3.01970342687927
  C           0.55516742564667      1.11855715664919     -3.22967154494848
  O           0.71928773129932     -0.23431824874011     -2.85583518031599
  C           2.98305166646956      3.94955473530697     -2.51294766603592
  H           0.87549092032611      3.77643706815606     -2.58549502951108
  H           2.72750412619421      1.38585597106587     -3.12998684685937
  H           0.32756376800320      1.07162099360549     -4.30214022327585
  H          -0.29365510604274      1.57002191845551     -2.70440867907289
  C           0.88365629129883      2.33899173497477      0.63589827477642
  H           0.34220905434180      3.28262500474089      0.59861949366483
  H           1.95934520242595      2.53507129759619      0.56913852003599
  H           0.66980157161104      1.83318088033886      1.58282226450991
  F           1.56355816195023     -2.33299788734941     -0.10918732116394
  H           2.31715427639959     -2.14075913314079     -1.93998159801667
  H           0.59472069214315     -2.60683430282337     -1.82793910197570
  N           3.94501134867154      4.54862226802032     -2.33579896480787
