17
Coordinates from ORCA-job NEB_reactant E -37.320269575830
  C           1.88365458569712      0.37957691683055      0.19449003561254
  C           1.43630947092265      0.97939296259449     -0.91934342114716
  Br          2.11411418759924      1.08635200551498      1.93226389544278
  H           2.15471214613033     -0.66288718014496      0.14305137825217
  C           1.36579412592082      0.12234136070359     -2.06343387501782
  C           2.95266971298843      4.39255997182911      1.01215937444034
  C           2.53743999765240      3.69702359617340     -0.03819082226078
  C           1.12370483453901      3.28545362957523     -0.28692541961530
  O           1.01516031271302      2.22801640485169     -1.21635440773239
  N           4.33329007739983      4.76391210348205      1.14930982536381
  H           2.32990509999944      4.72629510623509      1.82739878477266
  H           3.26001384843534      3.41160336975857     -0.79530529576386
  H           0.59902939277381      4.11336763832253     -0.78022931147612
  H           0.59774495835728      3.06153634371836      0.64746214205010
  N           1.31222062797600     -0.57309192256751     -2.96991724078614
  O           5.11139180948266      4.39778947421791      0.29672206862516
  O           4.61914481141261      5.42535821890490      2.12134228924001
