17
Coordinates from ORCA-job NEB_product E -37.315864304850
  C           2.86294114506301      1.98249943288761     -0.67414235500033
  C           1.64039056735309      1.69946541698054     -1.52981341017007
  Br          3.13558954179631      0.41470739186193      0.49469802307059
  H           3.75692540807982      2.02608598896526     -1.31129114432958
  C           1.71653789561357      0.42291719767580     -2.21807194971865
  C           2.72192462749672      3.28665429465004      0.10900575181595
  C           1.89423459899356      3.17449211097104      1.35457157959643
  C           0.64685895002284      3.59747522469552      1.42994746469522
  O           0.71444423581907      2.45452101868247     -1.64484456020000
  N           4.08736885923665      3.82886543892648      0.43520362045867
  H           2.26727316267672      4.02203198359433     -0.57139778537651
  H           2.38446680944910      2.70904920730425      2.19764071141958
  H           0.14757318758089      4.06206629220249      0.59552206242842
  H           0.07180228143345      3.48070817453607      2.33098283554132
  N           1.77933039253980     -0.56308202792034     -2.79358326132665
  O           4.20379172671893      4.42339519746927      1.47011731907020
  O           4.94984661012648      3.65194765651725     -0.38924490197457
