19
Coordinates from ORCA-job NEB E -43.068595436480
  C           0.47024951670498      0.95603386398535      0.16092130716877
  C          -0.69393999967583      0.33933197032304      0.67401752546184
  N           0.26863787818637      1.93121605114851     -0.90821524418470
  H           1.17600390968194      1.36335734947552      0.88230855701428
  C          -0.74806297287883      0.01488405759172      2.13008375899975
  C           1.35422364201905     -0.42400273519435     -0.80207672188870
  C           0.46349118968466     -1.49839613282810     -0.87339869716420
  C          -0.87713818805808     -1.16081996057844     -1.28865926693374
  O          -1.46150308539002     -0.38475791988965     -0.08235688572603
  H           2.28643878885216     -0.58954290798184     -0.27714544809576
  H           1.47786856718489      0.14534170037550     -1.71588984796410
  H           0.57822379562704     -2.32500631634596     -0.18489782000507
  H          -1.58150925424455     -1.98187428136842     -1.38161612405794
  H          -0.94456196029808     -0.46306801577901     -2.12424238963670
  O          -0.60228716085185      1.72942700284593     -1.72027417428211
  O           0.99813533607855      2.89190601756823     -0.88066314241087
  Br         -0.49151376773440      1.58709910011613      3.23736732512010
  Br         -2.41483639419219     -0.84407713803990      2.57499914698267
  Br          0.74208015930420     -1.28705170542427      2.57973814160250
