19
Coordinates from ORCA-job NEB_product E -43.106971978450
  C           2.51265171591332     -1.38685930040884     -0.43188563065309
  C           1.44951289709418     -1.86039625158234      0.52520445392394
  N           1.90734241096450     -0.37804396515311     -1.36653487481775
  H           3.34055505810544     -0.88359208729352      0.07752144830279
  C           1.82820090281043     -1.75844311051887      2.00436260559810
  C           3.05578196973431     -2.55504194097730     -1.29449945014613
  C           2.01090175690572     -3.17789690707225     -2.16688913316367
  C           2.08795899525292     -3.19363816562271     -3.48504245588079
  O           0.37451777197655     -2.27276156019812      0.21153374526752
  H           3.47404761199922     -3.30426401835634     -0.61653834937750
  H           3.86990334639642     -2.16147639994010     -1.90759824375780
  H           1.17022385818730     -3.62755922682137     -1.65974462159736
  H           1.32878985054564     -3.65901718690290     -4.08718620652658
  H           2.91379259005140     -2.74723114259345     -4.01518669850802
  O           0.93214611540217     -0.70671500787886     -1.97807550280622
  O           2.48020408107987      0.67895833659141     -1.42375739831750
  Br          2.00165550660866      0.15096099168534      2.43435769369350
  Br          0.44676893610858     -2.55819574814082      3.09085689093684
  Br          3.52214462486338     -2.65958730881585      2.33720172782973
