19
Coordinates from ORCA-job NEB_reactant E -43.103183793900
  C           2.24912985566550     -0.58720144838584     -0.04864513510594
  C           1.40787258049935     -1.59606472528571      0.25839406755477
  N           2.60640761568547     -0.13857831198391     -1.34586685590969
  H           2.73459410354565     -0.02290222552096      0.73425259886284
  C           1.05834800373077     -1.83206465740263      1.71125191957272
  C           3.73320136933290     -2.79688123999098     -2.58812106877043
  C           2.86986602597737     -3.20141182823419     -1.67598556844733
  C           1.39570114416430     -2.93781402522054     -1.74852117863457
  O           0.86002175086476     -2.54300294670859     -0.48237183632605
  H           4.78165133112351     -3.02467753462300     -2.51270012607524
  H           3.42349225428646     -2.22617797123108     -3.44811592412566
  H           3.19030590397507     -3.76838107362358     -0.81054318518198
  H           0.84627998508948     -3.85816917332123     -1.97047462957775
  H           1.16912870698576     -2.18307821414762     -2.51079564162629
  O           1.79195009211822     -0.26094472329655     -2.24239864592251
  O           3.69061046045549      0.38891827420141     -1.46074951333883
  Br          0.88122028175778     -0.20600734779714      2.74515301413330
  Br         -0.59267253894165     -2.82885613049344      1.85102920718002
  Br          2.50439107368378     -2.92270469693442      2.48970850173863
