20
Coordinates from ORCA-job NEB E -33.358782249460
  C          -0.45185851054474      1.11006244334575     -1.10972153692986
  C          -1.83863087257894      0.98358484205352     -1.02727655584149
  F           0.18487050162474      0.31661234333236     -1.99664872363657
  H           0.00269981431526      2.09586511948553     -1.09156447939400
  Cl         -2.61978281457139      2.33681030887543     -0.18370438452645
  C           0.05487104258830      0.24652663809474      0.60009746367859
  C          -0.59503999187730     -0.97322068883932      0.44351723336713
  C          -2.01650837106101     -0.98638418225630      0.38933811253934
  O          -2.41112772213831     -0.14909051749825     -0.96809034540917
  C           1.55961655319344      0.35757392766059      0.69790580152265
  H          -0.45113079100109      0.98748189772114      1.21598038268192
  H          -0.06671994342579     -1.79672161471150     -0.01042067099997
  H          -2.53847226027343     -0.39075452103468      1.13428256533339
  H          -2.49234846165643     -1.93974919573570      0.19896223358790
  C           2.34602182187703     -0.76768254243549      0.03691355712695
  H           1.80594199370091      0.38724340403103      1.76446937155190
  H           1.87642187669220      1.31516916580285      0.27894159303356
  H           2.15651287765951     -1.71628962799903      0.53261220615532
  H           3.41048575898850     -0.55703856976976      0.10742539442132
  H           2.08417749848854     -0.85999863012290     -1.01301921826247
