23
Coordinates from ORCA-job NEB E -53.035760424300
  C          -0.14901176039699      0.86875940168960     -0.64024937705099
  C           0.67113273006824     -0.08908456922485     -1.27097544347366
  C           0.33342313251307      2.16676065672077     -0.06801743941503
  H          -1.04315291490924      1.04385105680175     -1.23161785781164
  C           2.12137523267737     -0.35190131375892     -0.84004959500615
  C          -1.16022915383438     -0.24942124428167      0.71562815039678
  C          -0.97480149534205     -1.56420655527097      0.25883893163885
  C          -1.24279059594234     -1.90084047361571     -1.05800370471842
  O           0.12104315229316     -1.02724174287148     -1.91534643037537
  C          -0.71071683550396      0.05802372769757      2.11187913256425
  H          -2.09011808524240      0.23467012719788      0.44107022286976
  H          -0.25796972182774     -2.17350327748617      0.79614531219866
  H          -2.03979957506155     -1.39408830604308     -1.58360684324607
  H          -1.03037815849375     -2.89803221465772     -1.40991131137614
  Cl          1.00928490084006      3.15715860696033     -1.41784479350330
  Cl         -1.05697052005774      3.07812759461586      0.58241727750235
  Cl          1.56551317536781      2.05970349629485      1.19335192659845
  F           2.20101230306198     -0.74253824832123      0.44980389298736
  F           2.65402996240774     -1.33858558933065     -1.56140254220070
  F           2.92653043419059      0.70689745684719     -0.97799344878934
  H           0.30800392782335     -0.27769247842646      2.28401207501992
  H          -1.36468809618362     -0.48087926713955      2.79804291254680
  H          -0.79072203844760      1.11406315560267      2.34382895264363
