23
Coordinates from ORCA-job NEB_product E -53.070921912930
  C           0.96090766461345     -1.71106268539896      0.59458325287879
  C           2.07609048779266     -2.72689233520030      0.46628008678064
  C           1.33632213262232     -0.22863626074756      0.65957042467991
  H           0.40527436888433     -1.82729351594480     -0.34615377973297
  C           3.43253110343377     -2.60571549199757      1.23024746843718
  C          -0.02434333387755     -2.15099271295607      1.72936302615234
  C          -0.96352865959732     -3.18555117730976      1.17639953510795
  C          -2.26841668513432     -3.01705988521609      1.08509105326325
  O           1.94432826058171     -3.70770611774876     -0.20783154557794
  C           0.67662091609746     -2.70738894715403      2.96892773416648
  H          -0.59789484730376     -1.26258207616707      2.00808820782730
  H          -0.49773983474390     -4.10692768514932      0.85492337443032
  H          -2.74672995423103     -2.10466943404473      1.40177140013513
  H          -2.91369581168316     -3.78490223856895      0.69574595207415
  Cl          2.77535524168139      0.07519717216457     -0.35850333427066
  Cl         -0.02826467003648      0.70294156502097     -0.03011265636217
  Cl          1.62106510840096      0.42376124555673      2.28008775206275
  F           3.53198394341258     -1.62682981856241      2.12693561184252
  F           3.66117726842573     -3.75028367981118      1.88759556412575
  F           4.43047143504202     -2.44591566989244      0.35550031206684
  H           1.19736724348135     -3.63529437997013      2.74060299674365
  H          -0.07332144991812     -2.92464055654636      3.72598492038426
  H           1.38174007205589     -1.99575531435581      3.38690264278453
