22
Coordinates from ORCA-job NEB E -52.429785342260
  C           0.55246019574483      0.72832877537187      0.39066216437747
  C          -0.23478578774355      0.19959569807728      1.42574785118961
  N          -0.00166473969550      1.94122083936611     -0.22317037237077
  H           1.61842778735022      0.84089697024096      0.57414231271230
  C           0.43897353737268     -0.49793538042938      2.58906139910636
  C           0.29975807487253     -0.54830663834405     -0.98399890932554
  C          -1.08642223898640     -0.51710079200424     -1.13630524691762
  C          -1.90090660898196     -0.85342384732236      0.01628886788173
  O          -1.51457427754291     -0.04075463747529      1.24811955390804
  C           1.16928871854437     -0.14936870044853     -2.15746583155583
  H           0.75253699531667     -1.37205118609700     -0.43982682943987
  H          -1.52798804543070      0.04279918893999     -1.94450508708796
  H          -1.75405220150828     -1.87571317551767      0.37130904387214
  H          -2.95588555139033     -0.63199362721199     -0.11650431754009
  O           0.74129242917002      2.88872168709315     -0.25175356107813
  O          -1.15521607588571      1.91585206511607     -0.56998865339032
  F           0.89800948053267     -1.72244215304647      2.18229373828314
  F           1.52083912020833      0.18091075370219      3.01317659301042
  H          -0.24398961233833     -0.66161505133085      3.43426890882151
  F           0.75431317481075      1.00450348964124     -2.72206894432139
  F           2.44594586804363      0.05061302044337     -1.75596401824023
  H           1.18363975753697     -0.92273729876439     -2.94351866189495
