22
Coordinates from ORCA-job NEB_reactant E -52.457084740790
  C           2.01262800344646     -0.16688527689519     -0.72006731384541
  C           1.56236224160093     -1.39473441701067     -0.38512400278357
  N           1.59131866278057      0.68929709810761     -1.77118184767654
  H           2.80897522902720      0.27517395480077     -0.14077996410151
  C           2.09834842087595     -1.99973091323643      0.91737308575382
  C           1.71250639639921     -1.43319649099592     -4.27068543471247
  C           1.53207769154051     -2.23499292957381     -3.23507384228259
  C           0.34622601963750     -2.16847010874306     -2.32135837742049
  O           0.73976197820459     -2.25418813197306     -0.95516684759867
  C           2.88837775751011     -1.53493410692534     -5.19593066635405
  H           1.02258155248661     -0.63869321404583     -4.51634327491387
  H           2.25338447822882     -3.00727187489899     -3.00005292400844
  H          -0.28183173617053     -3.05389405588783     -2.46091954208155
  H          -0.24130096835091     -1.26298103012651     -2.50745677532749
  O           2.39661278958674      1.50629480537525     -2.15795531848823
  O           0.44863507655492      0.59821889784556     -2.18489914575101
  F           1.10279617343020     -2.09008244943554      1.82389425987826
  F           2.54391372487249     -3.25268846815614      0.69830568516383
  H           2.91542426399012     -1.41396356428479      1.36305189616196
  F           3.60325021457502     -0.38342054377353     -5.19244164925739
  F           3.74547101878730     -2.51529815667193     -4.82427272223896
  H           2.58628101098618     -1.73105902349463     -6.23931527811560
