22
Coordinates from ORCA-job NEB_product E -52.458066386450
  C           2.52386942485989     -0.82867636383191     -1.70351413112951
  C           1.70747518062953     -1.06303562416244     -0.44618598704343
  N           2.62379337281127      0.65302683183989     -1.93193446071795
  H           3.54920379076910     -1.19492799321107     -1.55716813512043
  C           1.90207129343203     -2.46784757436686      0.18601221641000
  C           1.87960256298697     -1.58483417639574     -2.89741291169000
  C           0.50268442226432     -1.08626870809825     -3.25044395719819
  C          -0.60018108837510     -1.71283816843531     -2.88733912079063
  O           0.95126182094222     -0.28139662990661      0.04288722797568
  C           2.81053290363079     -1.49931744449537     -4.11283288789454
  H           1.82878533162375     -2.64437031930815     -2.62305769347673
  H           0.46460182709282     -0.16661363620609     -3.81443655718008
  H          -0.58302574015519     -2.62593572587523     -2.31462320030660
  H          -1.56984413640989     -1.32926402336013     -3.14911220034123
  O           3.70524110552036      1.12957574787363     -1.71190005807738
  O           1.63269265579928      1.23762988623673     -2.26371377034266
  F           1.03889795632331     -3.33574350233369     -0.39341750954971
  F           3.14010034661768     -2.95086440114391     -0.03844803758981
  H           1.70723029737382     -2.45282781650604      1.26812703460483
  F           3.08276108857167     -0.21788613015132     -4.43909174434632
  F           4.00036108927902     -2.08306002584416     -3.83726486968561
  H           2.38228449441233     -1.99392420231800     -4.99742924650969
