21
Coordinates from ORCA-job NEB_product E -32.958065006510
  C           1.97027438583132     -1.41362640122166     -0.41671068732973
  C           0.69337780401626     -1.09640413148624      0.29729681157880
  C           2.27497558694980     -0.22604057473052     -1.35818702917983
  H           2.78538621314990     -1.50939602340052      0.30613627464293
  I           1.01503810797054      0.17880025957027      2.03647349678938
  C           1.77561522454906     -2.75403694579368     -1.16101438576904
  C           1.54450669265934     -3.87505858201629     -0.17644857224421
  C           0.45040632292166     -4.60979246404300     -0.14969984479469
  O          -0.40759191689907     -1.40260493814128      0.00599116236368
  C           2.93619487696584     -3.09302955238723     -1.95174732450952
  H           0.91330772128282     -2.66957302698010     -1.83374737188379
  H           2.35215287820893     -4.04328210160004      0.52398226537522
  H           0.31669247221027     -5.39546398324017      0.57342056101950
  H          -0.36071013686701     -4.45208213020870     -0.84127369572187
  C           3.77018367556263      0.00046509179091     -1.54317609432885
  H           1.83691845905285      0.68531461053825     -0.94107308678816
  H           1.79822511960956     -0.40362726191568     -2.32439474730017
  H           4.24099037366686      0.23574455411217     -0.59129827781156
  H           3.93080177223616      0.83739575408137     -2.21792141705951
  H           4.25185958802199     -0.87706907262440     -1.96488979779827
  N           3.85169477890029     -3.40703308030347     -2.55941823925031
