18
Coordinates from ORCA-job NEB E -42.143722033940
  C           0.83021901043513      0.67261713758301      0.83929157906759
  C          -0.51644856301877      0.26579424266292      0.90416414045236
  O           1.08462852821708      1.97326577140611      0.56557255845053
  H           1.57769513480683      0.23413053429133      1.48752957462004
  C          -0.88598978950659     -0.99601823205507      1.66638206346565
  C           1.30897623290132     -0.13903827364767     -0.98735621530259
  C           0.10752119374183     -0.51594387659485     -1.58830403543998
  C          -0.91442839354824      0.41773943650043     -1.69973673516396
  O          -1.33786255972110      0.76031555246318      0.07401952646852
  Cl          2.50567425428689     -1.35247920102075     -0.69745216104740
  H           1.76277932035997      0.80875938116214     -1.25292977295683
  H          -0.15288571822865     -1.56567553277242     -1.58173876365874
  H          -1.87989831515968      0.09910772508027     -2.05782999239975
  H          -0.66887479475867      1.44796628107097     -1.91198455653415
  H           0.26608431906582      2.38317333782519      0.24145772366872
  Cl          0.02106620785309     -2.42723244782631      1.11119162743450
  Cl         -0.49618551608222     -0.74519769206490      3.38723756421944
  Cl         -2.61207055164405     -1.32128414406357      1.50048587465605
