18
Coordinates from ORCA-job NEB_reactant E -42.175775956040
  C           1.74571391502219     -0.20374053484437     -0.09208220892193
  C           1.60960130213016     -1.50453605777371     -0.36962485631141
  O           1.98994613291087      0.76029614519076     -1.02899757041004
  H           1.65149519666305      0.12278928777973      0.93190198320424
  C           1.33241247439135     -2.52579502001836      0.69502584317322
  C           3.75298148019057     -2.82840694348458     -4.24922733971053
  C           2.58816252603925     -2.50201624681850     -3.71721618598909
  C           2.44425108649026     -1.50522323447595     -2.61123468960997
  O           1.71004346184803     -2.14008216649300     -1.57148418217216
  Cl          3.90435099560330     -3.95475416616897     -5.53360695466039
  H           4.69387969884360     -2.40106156215215     -3.93675377215031
  H           1.67011621452783     -2.96264246796104     -4.04880555057769
  H           1.89663331489132     -0.62486490515297     -2.96977457241013
  H           3.42418768669139     -1.18506672945500     -2.24051479307667
  H           2.09224352226902      1.61370983427121     -0.59615047892249
  Cl          2.79105713806071     -3.54338270003830      0.90919831113011
  Cl          0.91183104176834     -1.83804260222771      2.26055848862332
  Cl         -0.00210718834126     -3.57987993017710      0.17498852879190
