18
Coordinates from ORCA-job NEB_product E -42.174908293910
  C           2.64702463949373     -1.38789086507731     -0.99022615790179
  C           1.47599138892999     -2.27087805024302     -0.53518539461190
  O           2.23101139477658     -0.05213722695318     -1.08606907179096
  H           3.48097467982345     -1.49385913316849     -0.28199755824241
  C           1.64644316854029     -2.87216063122398      0.87536687495783
  C           3.11965813767687     -1.83137335351930     -2.38567520139270
  C           2.14494204708780     -1.52729619672235     -3.46979453631334
  C           2.47500711568836     -0.86164050090615     -4.56111430341821
  O           0.45505566075973     -2.41284748606446     -1.13350552305412
  Cl          3.38124752183207     -3.60969403591178     -2.29767892066717
  H           4.09078303705561     -1.37856777033633     -2.59773013941915
  H           1.14271033527791     -1.89673079706116     -3.31570100499723
  H           1.75440094121028     -0.65719239363813     -5.33301691369742
  H           3.47340353120671     -0.48993535027649     -4.72379596860658
  H           1.98347947165327      0.27464829378532     -0.21171157765433
  Cl          3.16814943783384     -3.75411116220551      1.05648379340911
  Cl          1.65079861845104     -1.44805861325880      1.96045446221285
  Cl          0.29021887270247     -3.92057472721890      1.28669714118752
