20
Coordinates from ORCA-job NEB E -43.579897772160
  C           0.45761919036000      0.55022599997885      0.69523573634442
  C          -0.83321815769149     -0.01257780274305      0.65291573388721
  C           0.52846879404802      2.01941615725821      0.32240316476130
  H           1.04674697902425      0.33971390587459      1.58573525849996
  C          -1.24011566866376     -1.07938248072788      1.61583164610992
  C           1.37543213599169     -0.30038146703592     -0.73188800396915
  C           0.43247585510892     -0.97868328870991     -1.51456243794953
  C          -0.75861430760891     -0.23813335476296     -1.82345112789460
  O          -1.51343199788801      0.00779068671026     -0.46245711461056
  Br          2.80914630190293     -1.34430023400987      0.01308794539532
  H           1.79194637530774      0.61776902441779     -1.12880027659830
  H           0.35278077266120     -2.05316934743852     -1.42908392271203
  H          -1.50567202623871     -0.76932038463145     -2.40485746542275
  H          -0.59669797052267      0.76917983511920     -2.20631735054586
  F           1.81519636718781      2.42652822150112      0.10792549091183
  H           0.14853666521887      2.61521444328966      1.16104866576627
  H          -0.04313794424271      2.25087651949167     -0.58158323303515
  Br         -0.85894482025533     -0.57631771815408      3.44855493311747
  Br         -3.13340325435486     -1.43497970441004      1.42876327740065
  Br         -0.27511328934496     -2.80946901101767      1.25149908054359
