20
Coordinates from ORCA-job NEB_product E -43.625094012480
  C           2.53132970838551     -1.41114635344622     -0.80496648751865
  C           1.26960883097862     -2.17162591811644     -0.47082605080589
  C           2.18847494226064      0.07467211381774     -0.99448492136678
  H           3.27582719315064     -1.50421142142969     -0.00830094804565
  C           1.19733734369251     -2.83053235300935      0.90182180800110
  C           3.12913040564995     -1.96581590469900     -2.11228817279275
  C           2.32646950204162     -1.68078122653775     -3.33264269082995
  C           2.83027582012495     -1.07085714058271     -4.39029933078170
  O           0.30685912004336     -2.21444810043904     -1.18121466279095
  Br          3.29184914098743     -3.94087067031602     -1.92152598095817
  H           4.15213081294290     -1.60020506371533     -2.22215384817050
  H           1.30188561389916     -2.02623823883225     -3.31591863567808
  H           2.23451624694924     -0.88268619622356     -5.26594683473985
  H           3.85241307665128     -0.73007891514257     -4.41938090703384
  F           3.30915744428219      0.75023653758752     -1.38716003448782
  H           1.85187836518979      0.52924468926892     -0.05711383917350
  H           1.43491436856107      0.20679721677201     -1.77711143315705
  Br          0.77646619298840     -1.28496528383561      2.05513368325190
  Br         -0.26761545021587     -4.08236555306165      0.95201647224041
  Br          2.80369132143659     -3.66412221805900      1.56366281483775
