19
Coordinates from ORCA-job NEB_product E -47.149370720730
  C           3.00152064770386     -1.84255101259722     -0.34345582323724
  C           1.52816661888567     -1.84387875712613     -0.00882816884298
  Cl          3.44683525455673     -0.09873115455675     -0.17651942315400
  H           3.61585039657742     -2.39601979727706      0.37327011110393
  C           1.18825197790712     -2.31093778524122      1.39874256140481
  C           3.27121041588593     -2.35196665004722     -1.75912085809545
  C           2.59177375928566     -1.58039575656761     -2.84409881634101
  C           1.85095211929237     -2.15159459380006     -3.77483050556738
  O           0.65814270674085     -1.53505356356392     -0.76618358460221
  N           4.77341764635622     -2.33440072550967     -1.96359710296016
  H           2.98421663462664     -3.41154582093115     -1.79948453431245
  H           2.75947911356709     -0.51440623337093     -2.83571963844275
  H           1.67739172233087     -3.21514725188734     -3.79816626610784
  H           1.38034450590231     -1.57272161898778     -4.54850561973603
  Br          2.29531064071328     -1.53216792498313      2.77775214361658
  Br         -0.67262087260650     -1.98990338709542      1.77453242089434
  Br          1.51579591563491     -4.24702361031691      1.30738974117319
  O           5.18300033771571     -1.87229505872870     -2.98944475142922
  O           5.43006045892384     -2.81135929741177     -1.07593188536414
