19
Coordinates from ORCA-job NEB_im1 E -49.107028737500
  C           0.90852422890402      0.43960341005163      1.53261997779784
  C           0.41471083158163     -0.70287993369045      1.06453687832568
  C           1.00889451112971      1.76553044268973      0.85151299360354
  H           1.30193203671185      0.44635861102032      2.53767634216491
  N           0.49786666311821     -1.88598072019857      1.99721105368090
  C          -0.34868103579312     -0.11592445753758     -2.76652107248637
  C          -1.17998547527255      0.25036111672592     -1.80380460795782
  C          -1.34520507888454     -0.59213599779346     -0.57707264615918
  O          -0.07560946710763     -1.08070987179575     -0.09887501626133
  Cl         -0.06690983539834      0.81903927955203     -4.16145132984228
  H           0.22106281138070     -1.03143947582077     -2.71516633666526
  H          -1.73744504186356      1.17082594791170     -1.85244373798362
  H          -1.91083829836291     -1.50230389650582     -0.80952909415818
  H          -1.86300907575093     -0.03921132431873      0.20960845146434
  F           2.20609428464184      2.31706668735938      1.08050873655625
  F           0.84208368533621      1.73421132307566     -0.47060755022543
  F           0.09230612026097      2.62671360726245      1.33038741838788
  O           0.39859652161076     -2.96150892185951      1.48097403490543
  O           0.63561161375765     -1.65761582612819      3.17043550485268
