19
Coordinates from ORCA-job NEB_im7 E -48.845406492710
  C          -0.53470486368424      0.05214105926295      0.42380546694673
  C          -1.30534759424944     -0.61923873456454      1.48347148486895
  C          -0.46426038384654      1.48125455106369      0.94944160192759
  H           7.70457549651594     -3.65881337972895     -0.39180954593512
  N          -0.69486765313978     -0.36163853949409      2.76348370522172
  C          -0.06662028201291     -0.20277138087446     -0.98549933631664
  C          -1.11016996711332      0.56113169064610     -1.79455978074180
  C          -2.38691204102487      0.54963492403745     -1.42421192348189
  O          -2.30731192368313     -1.21597434500806      1.70818400772678
  Cl          1.58316776614625      0.49539168711372     -1.32151317685965
  H           0.02720441952631     -1.24326477504143     -1.31189261763771
  H          -0.75782380484618      1.16640613758204     -2.62106578111016
  H          -2.72861850837182     -0.06343643289935     -0.60491123971176
  H          -3.13588671841943      1.15008223334069     -1.91241058547977
  F           0.54330062548784      1.79422662074354      1.77465281456253
  F          -0.45170829248514      2.39075868338021     -0.01421594762773
  F          -1.59709253842257      1.70062143693744      1.66365896854338
  O           0.32302011875526     -1.07896917156103      2.64826325764686
  O           7.36005614486776     -2.89754226493592     -1.03287137254231
