19
Coordinates from ORCA-job NEB_im3 E -49.087612740280
  C           0.72381519746317     -0.14015065728503      0.06666180358526
  C           0.13009341801954     -1.12681292509574      1.03156557759063
  C           0.48126994852645      1.28173410885537      0.67448603608136
  H           1.92532446051938     -0.43725957846026      0.07850674315550
  N           1.39490787562260     -1.61623590659065      1.89873437313037
  C           0.11250482278042     -0.18996677176706     -1.36781546949278
  C          -1.13902594255447      0.63248356663672     -1.59304719140878
  C          -2.30635075177948      0.38266882760093     -1.02901193925224
  O          -0.93124031709882     -1.60163702261480      1.21563516012394
  Cl          1.41351268614024      0.39586863608774     -2.45062889786584
  H          -0.07121444638404     -1.23357120422644     -1.63955043455441
  H          -1.02502386259689      1.47361790092245     -2.26364229800582
  H          -2.46225778511689     -0.44527156448624     -0.35987683681932
  H          -3.15655050324375      1.02011273657405     -1.20198829413590
  F           1.41118105006100      1.58157292855745      1.57151043870017
  F           0.49609408015749      2.25198541265109     -0.23553243170911
  F          -0.70244040683595      1.39104501278990      1.30582394468936
  O           1.47537521700520     -2.78823881363664      2.07790269177003
  O           2.23002525931481     -0.83194468651284      2.22026702441759
