19
Coordinates from ORCA-job NEB_im4 E -49.042815120530
  C           0.08904680833864     -0.02928346260989      0.16963844226360
  C          -0.53710143898552     -0.93833323724994      0.87670817172625
  C           0.11808155514587      1.34943379567305      0.78383963521049
  H           3.68288831864425     -1.39640096568403      0.51462547716331
  N           1.84605654237870     -1.27327194775006      1.80675812121093
  C           0.02356920058968     -0.13472037156077     -1.34240339913945
  C          -1.19701042230277      0.64986530376152     -1.75329475987887
  C          -2.37078143949560      0.46492811869497     -1.17847255921022
  O          -1.10450689619227     -1.72949822777595      1.48740559771997
  Cl          1.50529312140357      0.50372618965153     -2.10269645783053
  H          -0.04149854967918     -1.18682179224290     -1.63192518989687
  H          -1.03309975007177      1.43075382038971     -2.47646749966973
  H          -2.53169741409333     -0.29874129146817     -0.43369110433558
  H          -3.22047230714356      1.07525765325910     -1.41677245398533
  F           1.13134246113473      1.55803007380837      1.62862543836899
  F           0.15941141445068      2.32441490603887     -0.11874653442071
  F          -1.00823778482766      1.54720993963449      1.50490576387758
  O           1.36620521233178     -2.02589203510959      2.55354486854260
  O           3.12251136837377     -1.89065646946029      1.12841844228356
