19
Coordinates from ORCA-job NEB_im9 E -49.116401741650
  C           0.07980797124313     -0.06129504600523      0.76626918056757
  C           1.52423758608663     -0.33508925186913      1.15523258938451
  C          -0.31356111766872      1.34521613367884      1.24047911414921
  H          -0.57788190084226     -0.76530836311021      1.29508167278902
  N           1.90457193207777     -1.81564597858366      0.90758914033407
  C          -0.04319023380916     -0.28652321967113     -0.76024276681180
  C          -1.01204162375375      0.59057572540019     -1.47677747189665
  C          -2.08075148497589      0.11165599758929     -2.09175579724263
  O           2.32701168748514      0.37931801798912      1.64650163224240
  Cl          1.63386786888969     -0.01366910213440     -1.44092124663509
  H          -0.26785387221897     -1.34264072138214     -0.94260326115654
  H          -0.78039092791017      1.64729232309755     -1.49495169525160
  H          -2.31804373948152     -0.94136570428743     -2.09238435146341
  H          -2.76286462515521      0.76035067907099     -2.61180998841694
  F           0.35286985885821      2.32362272125149      0.62902357810965
  F          -1.62190126590497      1.57370547954696      1.04427360259684
  F          -0.10748230449618      1.47888804860166      2.55603717749857
  O           3.06911031799919     -2.07369480452012      1.00731236125989
  O           0.99448587357703     -2.57539293466264      0.66364652994292
