19
Coordinates from ORCA-job NEB_im5 E -48.911816946780
  C          -0.13556181114607     -0.01457144865229      0.27682034100081
  C          -0.87439776875824     -0.85774485476836      0.99412486390496
  C          -0.08925478667267      1.39480315561152      0.84594524114013
  H           5.04122426654484     -2.18928570939217      0.50592762990613
  N           1.50724922662933     -0.90892698176519      1.84136822985308
  C          -0.02867748205491     -0.14187446781670     -1.24217005697295
  C          -1.20525067342278      0.63705132515711     -1.78484109561525
  C          -2.41144947141780      0.50834454209594     -1.26414340523625
  O          -1.46229906493785     -1.58798874200087      1.63213300536056
  Cl          1.52216712090183      0.51713191265673     -1.83103405296234
  H          -0.04379073189336     -1.19061269712055     -1.55029711250490
  H          -0.98545888993319      1.36456038619789     -2.54953890366033
  H          -2.61399265436994     -0.21442029632363     -0.48933092304393
  H          -3.24113419071606      1.11712188008454     -1.56549573212873
  F           0.94054331893163      1.60560969217808      1.66267256776421
  F          -0.05401053509473      2.34056329810007     -0.08138824429734
  F          -1.19836282696776      1.62598524396917      1.58311349427015
  O           1.23939632714712     -1.84650224023785      2.41147581289471
  O           4.09306062723061     -2.15924399797344      0.60465834032729
