23
Coordinates from ORCA-job TS E -35.792578117460
  C          -1.27528621121768      0.32305268056781     -1.56768501706968
  C           0.17859187019377     -1.81987181972414     -0.33150853939002
  C          -1.07200100056890     -1.98407403222721     -0.82648854474434
  C          -1.78155707316552     -0.94627325389160     -1.46570777397804
  C          -1.15416278422316      0.82280845577232      0.63802933290594
  C          -0.39821596574217     -0.12464031007013      1.25510371117593
  H          -1.62550975970954     -2.88064931571329     -0.58380183105949
  H          -2.82270630241897     -1.11266318204884     -1.70716930868002
  C          -2.06242285721898      1.37030991624896     -2.08219671486256
  H           0.63899689067211     -2.58610979106013      0.26903327389577
  H          -0.21179959388050      0.51130213405829     -1.56177941736292
  H           0.84402389946473     -1.06818610951033     -0.71659417919221
  H          -2.22716337123875      0.80215672104553      0.72675206036483
  H          -0.85526375254082     -0.92135888085298      1.82107286168755
  H          -0.71198805033107      1.75967253151034      0.34517350418822
  C           1.04255420652670      0.05005521917429      1.49839837475595
  N          -2.70896872354082      2.23275253424739     -2.47535659473313
  O           1.67536214341068     -0.55964640833714      2.32455704922421
  O           1.59382936739362      0.98222302840121      0.69318794774637
  C           2.97446977120654      1.23585195387995      0.90142422428065
  H           3.25747788037974      1.99488432649670      0.17641423658270
  H           3.55641057002505      0.32377137120677      0.75095741587688
  H           3.14532884652396      1.59463223082627      1.91818392838738
