23
Coordinates from ORCA-job NEB_product E -36.740098180550
  C           3.06522084439854      0.96028774553052     -0.41596981847518
  C           1.58203419624783      0.75577802823856     -0.72020078525604
  C           3.47835682016780      0.15750229946112      0.81885297177826
  H           3.63558219615490      0.55583732513465     -1.26102513138067
  C           1.10667052847923      1.34931457803906     -2.01985921412711
  C           3.36234022195462      2.47753561689587     -0.31871128328085
  C           2.35336044977712      3.17834015315951      0.54850863426064
  C           1.70592064445211      4.26866701053788      0.18472562674672
  O           0.84737621461936      0.16779925303498      0.02936729998702
  C           4.78232632656201      2.76304077869122      0.19722135960092
  H           3.31826459824892      2.89788280208205     -1.32882153314727
  H           2.19345333121515      2.74476930068127      1.52480429277654
  H           1.85624902979718      4.72849562340672     -0.77983267666783
  H           1.00065205526165      4.75346075080343      0.83668638961170
  F           4.77575816035911     -0.27590178340229      0.67642127662010
  H           2.85395728336576     -0.73608777322381      0.91578288392031
  H           3.43503379536225      0.73812587487650      1.74195223204909
  H           0.86825854525864      2.39835813468850     -1.85163381978212
  H           0.19814515026275      0.84444921981984     -2.33782835829981
  H           1.86371087890487      1.28233867818936     -2.79544338568748
  F           4.86003960036829      2.66399294771947      1.56162873469960
  H           5.06943316426926      3.79088385906874     -0.04862451974513
  H           5.51075596451263      2.05732957656684     -0.21370117620143
