22
Coordinates from ORCA-job R E -31.278956547060
  C          -1.47553254168499      0.00307582845741     -2.70750994213465
  C          -0.08385201543612     -2.48105040642369     -1.71992094420950
  C          -1.39871811001496     -2.31353285526666     -1.83277158594640
  C          -2.05727100171179     -1.06253102378263     -2.14299504994780
  C          -0.66596817301311      1.49055101107077     -0.03710291978848
  C           0.29962165953159      0.65234151003646      0.27632198125745
  H          -2.05894087327305     -3.15283809997527     -1.65441268200638
  H          -3.10992938700675     -1.00559120683916     -1.89985157739785
  C          -2.16861259124000      1.26805484894624     -2.97772704938419
  H           0.34333646138785     -3.43817960328160     -1.47475413640653
  H          -0.43877998494448     -0.00091103370050     -3.00755174246876
  H           0.60632939401785     -1.66557674776343     -1.84920065507914
  H          -1.68059948589433      1.33926113658408      0.29378350115368
  H           0.12293902089099     -0.22440009982904      0.87792719998842
  H          -0.48917640818782      2.36519562061156     -0.64103231663528
  H           1.31427608655799      0.80403410217560     -0.05385334555567
  O          -1.64769440057620      2.22852786899612     -3.49382863835395
  O          -3.45663823901518      1.26265846426447     -2.58389114582366
  C          -4.17104962322714      2.46686424555914     -2.80872416377016
  H          -5.17806717187267      2.29815873416756     -2.43549781287841
  H          -4.19159561487601      2.70449359201819     -3.87457567585608
  H          -3.69803700041166      3.29491411397439     -2.27614129875665
