22
Coordinates from ORCA-job TS E -31.269030034840
  C           0.12992486280474     -0.04454283089067     -0.80718948657153
  C           1.65845408237305     -2.19234552453112      0.31973632024602
  C           0.31017159911373     -2.26674722879513      0.16171178991266
  C          -0.44288538158385     -1.20657751087956     -0.38312091952156
  C           1.11040934358647      0.59279819909140      1.28831020340258
  C           1.78907138691203     -0.46970069469854      1.77121204621207
  H          -0.23688965343309     -3.06184652238448      0.64971431726633
  H          -1.51900734292306     -1.24926857478101     -0.29576735950581
  C          -0.64317717319891      1.14236877588328     -1.18586894965907
  H           2.18429978184507     -2.96928669071579      0.85079734864658
  H           1.16098912851703     -0.00079205978226     -1.11631580172838
  H           2.26235516974394     -1.58637104783771     -0.33046342558798
  H           0.10384230635760      0.79850949601888      1.60803799010215
  H           1.35031452824253     -1.09869036247317      2.52692150982013
  H           1.60336634441840      1.37059966259186      0.73191042935159
  H           2.85841289263079     -0.53366933097780      1.66226692904051
  O          -0.17492417687090      2.10989748151910     -1.74021169461930
  O          -1.94063250634149      1.06602078102431     -0.82805029289807
  C          -2.73699499998896      2.19073992818217     -1.16052334657325
  H          -3.71902063025723      2.00713726507126     -0.73165261707731
  H          -2.80794716264982      2.29962303362506     -2.24508621921197
  H          -2.30013239929806      3.10214375573991     -0.74636877104640
