23
Coordinates from ORCA-job P E -34.968629638660
  C          -1.47691145557299      0.42611256264779     -2.33023926349099
  C          -0.11931239088077     -1.59640192684535     -1.09564146813319
  C          -1.45905553287528     -1.89505279152147     -1.68134141452981
  C          -2.11521178867376     -0.92708083203310     -2.30131413786405
  C          -1.05497321893436      0.78865533751573     -0.89502517721613
  C          -0.13203317935359     -0.27813072434723     -0.27144615811008
  H          -1.85431331175815     -2.89442149853802     -1.59937325649863
  H          -3.09244029207439     -1.04345513867610     -2.73949092832970
  N          -2.40753489937775      1.47156208671141     -2.79514703139115
  H           0.22923257674646     -2.41507485077048     -0.46553617782157
  H          -0.60620089846419      0.45572421500829     -2.99561503911072
  H           0.59477798357306     -1.47912557724860     -1.91635908972323
  H          -1.96516871994219      0.87503060456858     -0.29951766965079
  H          -0.52927808398003     -0.51869726427961      0.72056606207290
  H          -0.54515667914235      1.75214864696573     -0.87506975222606
  N           1.18439545743180      0.28544054983971     -0.02745331585224
  O          -1.93547056179645      2.36644661507684     -3.45698329537725
  O          -3.56336291283917      1.38554818813930     -2.45983852422157
  C           1.99116269626937      0.64228356528830     -1.17748740558974
  H           1.71371795822287     -0.33199201013123      0.57824843813305
  H           1.43915040239088      1.33051294657404     -1.81473584462137
  H           2.32011289067230     -0.21097348985548     -1.78799379275666
  H           2.87920396035868      1.15738078591094     -0.81409575769099
