23
Coordinates from ORCA-job TS E -34.879214100460
  C          -1.08002954577731      0.22655691926401     -1.11409248604137
  C           0.27010153479043     -2.01938110220324     -0.01153044963339
  C          -1.05975966841215     -2.04481303502429     -0.28061683601345
  C          -1.73401274363896     -0.96797299363123     -0.87345171360097
  C          -0.52129752539085      0.89814812593259      0.80103983928873
  C           0.40322085368343      0.05436521669024      1.37299599474221
  H          -1.66029884733003     -2.85862059964444      0.10157589796813
  H          -2.81342522946892     -0.96609606959005     -0.90191003703279
  N          -1.83917125311709      1.34186032289823     -1.57208653170007
  H           0.72702883601645     -2.80788956797446      0.56348137335613
  H          -0.06162449354481      0.26867034948594     -1.46713035833437
  H           0.94448263964070     -1.38103303780758     -0.54981978042736
  H          -1.52571206043430      0.86674432379168      1.18602217927903
  H           0.07941033369808     -0.69259388207266      2.08048975894484
  H          -0.20063548577706      1.85340931864989      0.42017750676119
  N           1.75749478261312      0.23948460363115      1.34020899164111
  O          -1.22114168171952      2.23361944706519     -2.12722308100980
  O          -3.03460212578396      1.36512211555025     -1.36106307666474
  C           2.42687440156694      1.06134282340083      0.36310806229785
  H           2.31038745042582     -0.52901055023452      1.68665625377128
  H           1.90338066770821      2.00862907099963      0.25343938771119
  H           2.49137165520682      0.58449728763350     -0.62213959589204
  H           3.43795750504493      1.26496091318933      0.71186870058864
