27
Coordinates from ORCA-job NEB E -35.471340709150
  C           0.23814410817687     -0.22853311340994      0.47398517688415
  C          -0.92416229298695     -0.20783938011510     -0.31148977173238
  O           0.29055963163116      0.48750435867367      1.66554426668545
  H           0.77202104141695     -1.18422686851882      0.52905558876170
  C          -1.14212204259718     -1.28153405431527     -1.35415040023583
  C           1.35565620875644      0.92970447310998     -0.58223398242342
  C           0.58438532008354      2.09275350475349     -0.57223252875976
  C          -0.69860518164158      2.04933182793396     -1.19406493433073
  O          -1.56269535174271      0.92972718921603     -0.42604308423074
  C           2.69331514234193      0.91822301806780      0.10841546948375
  H           1.34352646465853      0.34582088814947     -1.50089605463055
  H           0.73405618291022      2.79109415511938      0.23691113902832
  H          -0.71961187709468      1.66261377505318     -2.21175394230215
  H          -1.31799204261711      2.93111542237427     -1.07956788398788
  C          -0.32089426322179     -0.19715273712970      2.73140882933272
  H          -0.21337086820088      0.43888191474480      3.60775294119971
  H           0.16895626385691     -1.16250538865318      2.91591763588067
  H          -1.38378144851177     -0.37317723608121      2.53154893581387
  C          -1.63168461900530     -2.58558732225674     -0.72509210846792
  H          -0.20853671761127     -1.47158230679287     -1.89469822756441
  H          -1.88617088197570     -0.91913240004486     -2.06546443272697
  H          -0.90155400191486     -2.96723291788116     -0.01535799699039
  H          -1.79328293226467     -3.33858612926819     -1.49308878992493
  H          -2.56875777737176     -2.42147310553319     -0.19883816508097
  H           3.07499506969477     -0.09531124219275      0.20533191933813
  H           2.61000160606555      1.36121729009611      1.09635219175139
  H           3.40760525916536      1.49588638490083     -0.47725179077085
