27
Coordinates from ORCA-job NEB_reactant E -35.508146448540
  C           1.46167892704303      0.10163733610362     -0.37466338392784
  C           1.33096478647653      0.15077125688939     -1.70016026278898
  O           1.40730968666648      1.17007444600194      0.49806207290988
  H           1.60686625300539     -0.86484548681432      0.09690157958883
  C           1.29078009737741     -1.11791547485208     -2.51321622174721
  C           3.71579323353682      2.26264445011855     -1.73869733951954
  C           2.60155610385942      2.91906839607502     -1.46631019168843
  C           1.22958859094538      2.52861394455809     -1.93591014179050
  O           1.14726665033807      1.24029228595229     -2.50360429026111
  C           5.07198470045251      2.66089193861837     -1.25920457555426
  H           3.68132349131048      1.37021472319111     -2.34989889615828
  H           2.62068575110208      3.81391410979997     -0.85887787543597
  H           0.91133692933973      3.20387615280148     -2.74038223591739
  H           0.52280109068322      2.62531709563441     -1.10278315929891
  C           2.29461994106867      1.06491795269497      1.58220938737009
  H           3.33693034894744      1.13000897042597      1.25034456121256
  H           2.15123389567684      0.12071734324975      2.12164700863524
  H           2.07353011170200      1.89920836241089      2.24576905355634
  C          -0.15034438234278     -1.54893536035781     -2.78554748523316
  H           1.82144123403762     -1.91099307375077     -1.98614253521731
  H           1.79245197134860     -0.92867080936757     -3.46332462786629
  H          -0.66652342970986     -1.75298412698553     -1.85061283936774
  H          -0.16828897022150     -2.44698024756460     -3.39862973436069
  H          -0.68119329356892     -0.75827543255822     -3.30870554926313
  H           5.52531493127442      1.85133948874466     -0.68693841967821
  H           5.01986780893051      3.54870947904525     -0.63356764948025
  H           5.72432354072043      2.86628227993518     -2.10785624871774
