27
Coordinates from ORCA-job NEB_product E -35.514282357320
  C           2.71868104866807      0.65408417502695     -0.56791894221240
  C           1.37605295610767      0.07674369200920     -1.02248385074721
  O           2.67710382176732      1.15929223123429      0.74442206545449
  H           3.49020594041153     -0.13497605544216     -0.64262218246218
  C           1.47333418570149     -0.92374741580154     -2.15688361095187
  C           3.09264195133751      1.81837236684713     -1.51969993850645
  C           2.01168155303075      2.85706634245043     -1.48710059828118
  C           1.31257128481958      3.23080192977791     -2.54083520480800
  O           0.33392344425890      0.38623277168471     -0.50803016854349
  C           4.43214966655469      2.42479277565413     -1.10015337812919
  H           3.18178001545824      1.41533846574543     -2.53402301542790
  H           1.82956311632010      3.28497341817823     -0.51276662784597
  H           1.48036225575174      2.80344132172161     -3.51730633464027
  H           0.54328998313857      3.98074225362496     -2.47791949307400
  C           2.50035838063390      0.17841009603266      1.73354456282806
  H           3.28752989372742     -0.58598138185643      1.67613957573136
  H           1.52338610951254     -0.30870232969066      1.65620937361073
  H           2.56808071285487      0.69550830740285      2.68863301709485
  C           0.15989824213078     -1.04715039234091     -2.91809075768000
  H           1.73086737798987     -1.88552109641680     -1.70173251221520
  H           2.29143106377981     -0.64970617048339     -2.82438113256857
  H          -0.64755434790677     -1.27731861598782     -2.22829251561435
  H           0.22240325079852     -1.83330156639655     -3.66620986363575
  H          -0.07572409129016     -0.10793109477407     -3.41223564068259
  H           4.36878197165689      2.77991508416763     -0.07586118769682
  H           4.67843349162413      3.26039259502579     -1.75088766847752
  H           5.22516672116203      1.68282829260642     -1.16601397051862
