20
Coordinates from ORCA-job NEB_product E -36.458444513610
  C           0.45539696246577      0.01426879310616      1.40555166657466
  C           1.33686468796138      0.90714102732489      0.54522123503587
  O           1.12974403405424     -1.06824902448723      1.99148407582494
  H          -0.37141539654279     -0.34133702051407      0.75947541028193
  H           0.78964710649952      1.78982381186408      0.15812086749148
  C          -0.15078611344779      0.82914121148014      2.55949632153267
  C          -0.87781839071052      2.06336881211730      2.11825523077104
  C          -0.65334691069329      3.26217691735753      2.62337963633916
  O           2.48383005898616      0.70506457828695      0.28294769677894
  N          -1.17066758558689     -0.03926814945693      3.23874581425088
  H           0.61778586535310      1.04901353803603      3.30504401706960
  H          -1.64545757230111      1.89780487594309      1.37385307486844
  H           0.09831111593925      3.43067775843481      3.37619902950603
  H          -1.20895444022290      4.12358225439119      2.29702084444494
  C           1.43812620563677     -2.12328425561239      1.10574757966125
  H           1.89230207481424     -2.89805713464267      1.71879102452413
  H           2.14324949674047     -1.80861319024149      0.33286424151060
  H           0.52773363255567     -2.51370583961830      0.63581685711755
  O          -1.95128230456436     -0.61912551043051      2.52958879573483
  O          -1.15756252693690     -0.04892345333858      4.43859658068105
