20
Coordinates from ORCA-job NEB_reactant E -36.456428153390
  C           1.02805788524218     -0.30389276466053      0.12198648828809
  C           0.76165189127117      0.90050746761776      0.62034132934022
  O           1.78780785720296     -1.22727570320101      0.76723829030222
  H           0.63838378279830     -0.57408884967568     -0.85144988149665
  H           0.13555616410901      1.59183225136471      0.06913590757001
  C          -1.30523600653801      1.95470417774314      4.24649216998082
  C          -0.73537151557643      1.61230324572941      3.09749794134344
  C           0.47403567161124      2.26181779523026      2.50628943355032
  O           1.28316543144427      1.35575162004962      1.80713477066654
  N          -2.47557245660189      1.28040438876872      4.72498079638139
  H          -0.96163775876375      2.73825747970086      4.90415669580008
  H          -1.15941248614652      0.79399210636689      2.52582899545221
  H           1.10550738205168      2.69807639995604      3.28443332100769
  H           0.13552961801075      3.07296174847130      1.83589225755230
  C           2.04333848101262     -2.40845125414558      0.04774875688099
  H           2.63172547168364     -3.04525015553278      0.70553110056302
  H           2.61412775175367     -2.20536260533309     -0.86498448928900
  H           1.11410591890074     -2.92378870075434     -0.21927293144538
  O          -2.96156631222130      0.40854041177917      4.03760298924011
  O          -2.90569677124434      1.64036094052512      5.79991605831157
