18
Coordinates from ORCA-job NEB_reactant E -29.583505107440
  C           1.23286428482114      0.04778740350494     -0.21274726412295
  C           1.13142406339692     -1.15268324089591      0.35534077767964
  O           1.57093948432363      0.20067870690137     -1.51875869374959
  H           1.04682263896429      0.94212419064567      0.36849619622761
  Br          0.55801096933226     -1.19043937895345      2.20329327292081
  C          -1.14495704790073     -3.70173229528775     -2.13846195253552
  C          -0.69135918332717     -2.93640242988974     -1.16506904921705
  C           0.42809135963380     -3.32074061869775     -0.24833111910907
  O           1.45348940156086     -2.32908246557500     -0.18846819266597
  H          -1.96116153612156     -3.39361148791287     -2.76855572647664
  H          -0.72475665772498     -4.67370858432067     -2.33726833104770
  H          -1.12039394183918     -1.96020234524460     -0.97848749959847
  H           0.93202321189778     -4.22474338569961     -0.59393068414822
  H           0.03622245655536     -3.49228766445103      0.76704077023450
  C           1.82483620171841      1.52656042783894     -1.92155491568976
  H           2.00360846290135      1.48767378113291     -2.99413552498725
  H           2.70990286069364      1.93126228808207     -1.41999849799946
  H           0.96739297111416      2.17644709882249     -1.71770356571492
