18
Coordinates from ORCA-job NEB E -29.568870418290
  C          -0.41874911273637     -1.01327818630533     -1.13269161154748
  C          -1.75237249153585     -0.81787478727919     -0.84188260479224
  H           0.11378179942337     -1.71942808035245     -0.51176688151388
  H          -0.08736336280377     -0.96683854493451     -2.15857074408920
  Br         -2.79959454678904      0.09698950090381     -2.24959255910150
  C           0.34147394725876      0.67373038072370     -0.30182339822353
  C          -0.19639533586538      0.55850515332963      0.98354362647448
  C          -1.58875804146163      0.64136424185510      1.14658686463787
  O          -2.22291391103293     -0.74963439552847      0.31919325465929
  O           1.65786633745289      0.61415083276883     -0.60296419423123
  H          -0.14051168012166      1.34970512733943     -1.00300906589495
  H           0.36681716911122      0.03536018132994      1.74184345493120
  H          -2.12477943168977      1.39058822060411      0.57506879091942
  H          -1.99149821074813      0.47484596203566      2.13481698221339
  C           2.52888632691276     -0.02162733007432      0.30910522895369
  H           3.49807196467754     -0.05827488633737     -0.18449993240147
  H           2.20101749599332     -1.03931271124702      0.53959749259485
  H           2.61502108395469      0.55102932116845      1.23704529641129
