18
Coordinates from ORCA-job NEB_reactant E -29.593111169890
  C           1.74704294931944      0.07080777079810     -0.15302473069880
  C           1.37301778220410      1.22006358205018     -0.68933521223574
  H           2.17632487483435      0.00999561765394      0.83043069184163
  H           1.62017637556197     -0.84903384603700     -0.69004400114796
  Br          0.61034275131279      1.27379784990335     -2.43616372998191
  C           4.24297953423592      3.77522306274338      0.97681238742539
  C           3.50564614433176      2.66919530408427      0.98888726409019
  C           2.01111636496228      2.71976214959391      1.05035492909291
  O           1.40706046464008      2.47303283155203     -0.21991761470269
  O           5.58055190670809      3.89310423693753      0.90300728796195
  H           3.78990813852454      4.75540874331522      1.05255281141477
  H           3.94917158893215      1.69029644388295      0.89867972524744
  H           1.67276646110531      3.72419163996024      1.31258484730340
  H           1.61841480091058      2.00325529410024      1.78255857992441
  C           6.34033687783495      2.71196047426522      0.77634382306068
  H           7.37971364809358      3.02815910124409      0.71454859503962
  H           6.06979810409530      2.16368109751640     -0.13095507841249
  H           6.20653123239282      2.06149864643597      1.64607942477720
