18
Coordinates from ORCA-job NEB_product E -29.605899051900
  C           3.17081854162879      1.41340842685429     -0.73238556012770
  C           1.71999248928295      1.11733112285488     -0.70394735734764
  H           3.70543832174787      0.54184896487037     -0.34748418813952
  H           3.50125168191844      1.63310996247417     -1.74887954556944
  Br          0.67289255356433      2.48705329336258     -1.66041029041845
  C           3.48548906303560      2.65926888221823      0.15417287731874
  C           2.91521348434635      2.44468654881740      1.53070760449805
  C           2.06960031924590      3.28103157284976      2.10135624288439
  O           1.13983202305053      0.22917087543802     -0.18675192163179
  O           4.86090173511906      2.96260738734397      0.11861962438043
  H           3.01567505129119      3.53730973454408     -0.30476375667118
  H           3.22036368685716      1.53633532811832      2.03281524287899
  H           1.74763887945922      4.18497254842494      1.61093592745347
  H           1.66080379292820      3.09408499048207      3.07950072830514
  C           5.71637932508004      2.18930958289829      0.92962165993540
  H           6.72406504122565      2.51556309597614      0.67949497758786
  H           5.62973674871832      1.11745784996469      0.72469422458797
  H           5.53470726150042      2.37034983250779      1.99370351007529
