19
Coordinates from ORCA-job NEB_product E -48.561272232660
  C           3.07936178577230     -2.08859736363320      0.34470860847888
  C           1.60860534094477     -2.14447020558562      0.61125682181688
  Cl          3.21131145210000     -0.38263236503320     -0.23572668714331
  H           3.65315226680213     -2.15050252077626      1.27401233549131
  N           1.22182082322065     -1.33884117257521      1.87758743135507
  C           3.53185111060093     -3.12624609312657     -0.69111872691479
  C           3.18454323995625     -2.71884212253686     -2.10084458272805
  C           2.20308864301279     -3.26650567521143     -2.78971485871345
  O           0.73733763461077     -2.64375853585323     -0.01335006423446
  C           5.03046647817145     -3.41713747659096     -0.57096621548911
  H           3.00412835675214     -4.05838747568026     -0.45586738590294
  H           3.79531664064468     -1.93372153140044     -2.52008593563376
  H           1.58262400632690     -4.04653991462362     -2.38218168500140
  H           1.97498626926733     -2.94333379475794     -3.78987247748343
  O           0.07342488557548     -1.00506081765935      1.94107881351463
  O           2.09376313787512     -1.14759570376946      2.68691144944454
  Cl          5.48549268440969     -4.63358654306807     -1.78565488560850
  Cl          6.01172220408786     -1.96319492730868     -0.82234748040663
  Cl          5.40670303986878     -4.07644576080962      1.04577552515855
