19
Coordinates from ORCA-job NEB_reactant E -48.564227847570
  C           2.29746398840210     -0.52555890434941     -0.14484050077924
  C           1.47127410079161     -1.43720372497500      0.38165340204355
  Cl          3.21376795505169     -0.64704900979112     -1.58080747920063
  H           2.41010951825501      0.41326769370179      0.37964974014020
  N           0.78073909000812     -1.05902366685071      1.62765705888644
  C           4.20732942713108     -3.78139159799265     -1.41358866184811
  C           3.20766033020370     -3.68156974776035     -0.55245460852538
  C           1.79203341196253     -3.40164146438155     -0.95309968506068
  O           1.08841479945521     -2.67192748699411      0.03725893853225
  C           5.62465294979951     -4.05417141820384     -1.06460214607251
  H           4.04684629203127     -3.65483585911647     -2.47551132551768
  H           3.36618503148956     -3.80909487519059      0.50912652612981
  H           1.23819405025460     -4.34511997982316     -1.01473335235034
  H           1.74121209236602     -2.89836150712925     -1.92352218415929
  O           0.10028305811069     -1.90507538071771      2.14418561591311
  O           0.94742693534179      0.06632949322617      2.03775020055031
  Cl          6.17642909916412     -5.52214672886529     -1.92394950329418
  Cl          6.62410373191641     -2.67462048313077     -1.61925884946721
  Cl          5.90597413826498     -4.28070535165598      0.66548681407962
