20
Coordinates from ORCA-job NEB E -33.531142666170
  C           0.27632929222872      0.65599802193281     -0.77804775909003
  C          -0.93234033256574      0.56744656018459     -0.06651859224747
  C           0.41770841534631     -0.16055792405020     -2.04498635986102
  H           0.71589879801017      1.64335238168924     -0.88746738138010
  C          -1.35765018641472      1.67491491773544      0.85381437220874
  C           1.40637915802825     -0.22251336204517      0.48871006440778
  C           0.80981446231930     -1.47340668855744      0.66585807770772
  C          -0.53175806278780     -1.49407624692147      1.14488706274459
  O          -1.43306858149803     -0.62570616041956      0.12480929418490
  F           2.63629127723476     -0.19394890353290     -0.05904307152226
  H           1.35130778159215      0.52727281446874      1.27733438443935
  H           1.16828911706542     -2.28899664524463      0.05690585457909
  H          -0.71516048367900     -0.95283347966664      2.07126636558978
  H          -1.02189271978369     -2.46004709269363      1.13466813728256
  F           1.64359830516263      0.02437990819712     -2.62308996534138
  H          -0.32280915312205      0.18356276066323     -2.77839224026173
  H           0.28863231389512     -1.23202803246784     -1.87135540335310
  H          -0.90087171110622      1.53505707685778      1.83831838226007
  H          -2.43652868845760      1.64754635003109      0.98578523193798
  H          -1.06216900146798      2.64458374383944      0.46654354571453
