20
Coordinates from ORCA-job NEB_product E -33.574708577210
  C           2.59773933618330     -0.14310305460919      1.09471486344714
  C           1.20684718597599      0.10243643607985      1.66922872922729
  C           2.47015983171888     -0.85660003005252     -0.25186303753709
  H           3.12389344658465      0.80659548192390      0.95764372773490
  C           1.08277983678244      1.35155985106016      2.49621568807616
  C           3.41425318552097     -0.95553955881938      2.13725339212210
  C           3.22675403839963     -2.43586075179530      2.00917430438074
  C           2.30522934339468     -3.11260485944270      2.66672661505357
  O           0.29264618451833     -0.65410354699624      1.47045407050428
  F           4.74803415705733     -0.64055055993663      1.98074848662944
  H           3.15083676126375     -0.61444143777306      3.14856313434816
  H           3.90744504279402     -2.91280935555266      1.31872774632038
  H           1.62488710797712     -2.63444778657157      3.35205258337676
  H           2.18494745085727     -4.17338294276792      2.53458217275755
  F           3.69832698973410     -1.11870159725466     -0.79493869524465
  H           1.93479851745836     -0.22185962855433     -0.96612302419534
  H           1.94730058850577     -1.81073307139201     -0.13825453149137
  H           1.94947922263375      1.48698359640208      3.13777441720014
  H           0.17293554336348      1.32323598022582      3.08974114153804
  H           1.03020622927618      2.20412683582636      1.81987821575181
