18
Coordinates from ORCA-job NEB E -41.418205087530
  C           1.02136999900963     -0.18365782895212      0.44387607327609
  C           0.23170307267188     -1.28006377886505      0.05124119650489
  C           0.85077364842291      0.37136979308281      1.82570029228299
  H           2.07017425467523     -0.26601832176055      0.17288503146398
  O           0.81188080863793     -2.13707256134419     -0.82325738502940
  C           0.26212635237953      1.06081699019290     -0.99570097531087
  C          -1.10715318105961      1.01404230901844     -0.78369427491329
  C          -1.76234694306276     -0.22464450553141     -0.94802954614763
  O          -1.03424057562451     -1.29797028722102      0.18502952712897
  I           1.23254681285728      2.93611568589377     -0.91655542543878
  H           0.69946920848584      0.46065256405865     -1.78264279546395
  H          -1.58002903787219      1.77769269615776     -0.18779252366217
  H          -1.52937876555265     -0.79884626933781     -1.83919357903577
  H          -2.80155536797463     -0.28013645950760     -0.65596446910058
  Cl         -0.76415709108113      0.95513160760278      2.22168279666258
  Cl          1.21260623780294     -0.97442721674949      2.99217923026157
  Cl          2.02625011081469      1.65062052858630      2.17047442098010
  H           0.15996045646960     -2.78360494532416     -1.13023759445873
