18
Coordinates from ORCA-job NEB_reactant E -41.452360195320
  C           1.84334561447972      0.07263729032684     -0.06240881261014
  C           1.17268701482425      0.30679809284400     -1.20445074979608
  C           2.16575784549415      1.01702367941101      1.01952106677824
  H           2.21113918043096     -0.92611373128498      0.11906812279867
  O           0.95170977169051     -0.67191262917239     -2.11086536030968
  C          -0.34351620040383      3.75790450953355     -3.95730519958873
  C          -0.50880794439534      3.01715053719680     -2.87944624537998
  C          -0.01943616828628      1.60724421494306     -2.77666876524205
  O           0.67700404332848      1.49464227382779     -1.53845294638817
  I          -1.06709525199322      5.71979965339248     -4.11911523431738
  H           0.15347574022680      3.41163953575521     -4.84806242267753
  H          -1.00055607842186      3.39476847812112     -1.99547422325664
  H           0.64345847566409      1.34930605790581     -3.61013210674064
  H          -0.87171979561712      0.91388215832501     -2.78150566679416
  Cl          1.57454934796619      2.65617303835868      0.79052591907364
  Cl          1.49790736588619      0.40165308464725      2.57592553937877
  Cl          3.95392378863516      1.10116795660237      1.23600534068939
  H           1.33197325049114     -1.50686420073362     -1.81395825561753
