20
Coordinates from ORCA-job P E -34.059564718600
  C          -1.51479891021410      0.55644315619564     -1.92553866998112
  C          -0.58702598879897     -1.43603329987875     -0.28546519613662
  C          -2.05297248137979     -1.37777353936230     -0.57209068770239
  C          -2.50555075036260     -0.42434770786943     -1.37054463079183
  C          -0.64060761619607      1.10006642732310     -0.78274580036557
  C          -0.05418015097494     -0.03217622635936      0.09133368026317
  H          -2.70013287275280     -2.11538044834187     -0.12642915002647
  H          -3.54507209705249     -0.31746935042099     -1.63409045865750
  C          -2.21507671567806      1.70368865796481     -2.64227803991090
  H          -0.36323621472134     -2.13802455702616      0.51771624668233
  H          -0.87108334334689      0.05532552637542     -2.66036989736855
  H          -0.06126317870560     -1.77811166103154     -1.18330809887259
  H          -1.25811000594303      1.75097614045233     -0.15995585245106
  H          -0.30460474507650      0.15965889677578      1.14051763876247
  H           0.16392614934729      1.70825117442419     -1.20122192812278
  C           1.38658912758720     -0.04317279597345     -0.01086414789131
  F          -1.31584518499984      2.57886357853673     -3.15530669332710
  F          -2.93541507400816      1.24573385139516     -3.69430300390586
  H          -2.89861260423330      2.27199585679526     -1.99109257980069
  N           2.52577265751000     -0.06366367997457     -0.09919273039565
