20
Coordinates from ORCA-job R E -33.966403632440
  C          -1.44719760352884     -0.36949915655386     -3.20085124243488
  C          -0.19055497100653     -3.00348080362382     -2.41690872999008
  C          -1.49062762884197     -2.72736874413457     -2.41902583342784
  C          -2.08542547123899     -1.44170710703690     -2.73356673091467
  C          -0.61521657698222      1.87703127288053      0.28982941666079
  C          -0.27617679596210      0.59395954791010      0.23002376696521
  H          -2.19943618852965     -3.50524535487799     -2.16472326205392
  H          -3.15627433514531     -1.37786521943565     -2.57517282306148
  C          -2.14766985293698      0.91649748639176     -3.48336031442706
  H           0.16687352799591     -3.98816893137255     -2.16948694563891
  H          -0.38560840311618     -0.35717864464570     -3.39069579074948
  H           0.55807025832327     -2.26344226064329     -2.63779089155373
  H          -1.38302397168926      2.22306224258928      0.96128907382394
  H          -0.74538857000771     -0.16181496543202      0.84703610627741
  H          -0.14457315451814      2.61452220898905     -0.33758165502185
  C           0.71538149945549      0.11390013664165     -0.64724286780150
  F          -1.80399892379414      1.87093402522487     -2.56644703114251
  F          -1.78020501141639      1.42595771090424     -4.68611739986071
  H          -3.24561911539760      0.83831367722852     -3.47042795962788
  N           1.51200128833731     -0.30410712100366     -1.35873888602084
