20
Coordinates from ORCA-job TS E -33.955249324980
  C          -0.50037660209942      0.43842088703587     -0.97559676652113
  C           0.83069380794171     -1.90720989346682      0.04848620646417
  C          -0.50375707863470     -1.85282147282565     -0.15160013735090
  C          -1.16037092729574     -0.71928093332629     -0.68902881604658
  C           0.14555943758095      1.01872755328582      1.06510662728337
  C           0.86859028425296      0.00321752643704      1.61673322517520
  H          -1.13244263059401     -2.63576481254440      0.25014946205070
  H          -2.24211349784692     -0.71504304029514     -0.67404364351591
  C          -1.26005846243250      1.62650223229338     -1.48618766394319
  H           1.27565527502600     -2.73080694214358      0.58158312349691
  H           0.54165427289272      0.43385626248155     -1.25586628185905
  H           1.51938163690734     -1.27330509080231     -0.47935983094509
  H          -0.87257200644654      1.17682264984331      1.37842222993841
  H           0.41993004253398     -0.70749579847257      2.29525772482710
  H           0.65287798177601      1.86450734691717      0.63210120746388
  C           2.27261515650440     -0.02874652131183      1.53174346593155
  F          -0.56364999619196      2.77608123754523     -1.31262028919428
  F          -1.46128595904455      1.51952193535478     -2.82960009494109
  H          -2.24894019159631      1.75752460297742     -1.01842587540600
  N           3.41860945676657     -0.04470772898297      1.47274612709192
