20
Coordinates from ORCA-job NEB E -37.559314439660
  C           0.44587964877406      0.13774796834317      0.94811176294482
  C          -0.81516535696130     -0.39087246165689      0.63059459660439
  C           0.52040047346567      1.60662427338475      1.29255541360835
  H           1.08649942303398     -0.46992750419027      1.57832793569451
  C          -1.00143384922344     -1.88763818283150      0.80421366272565
  C           1.30497025266343      0.05814779053245     -0.82198249626971
  C           0.29998419655651     -0.11604069662066     -1.78024341073640
  C          -0.84977256936769      0.69505491553037     -1.65693987230392
  O          -1.57147013087219      0.21498126980781     -0.21576492881937
  Cl          2.50968084438993     -1.19777682499143     -0.71723510532836
  H           1.76539065063920      1.03148569973523     -0.71102000024921
  H           0.16309581052210     -1.10974767637191     -2.18715687134131
  H          -1.66216585852047      0.51293691936116     -2.34777047223403
  H          -0.69311960308309      1.74949392793222     -1.45754326272124
  F           1.81057981878768      2.07267948917607      1.26359714373304
  H           0.16479270668344      1.75618254121699      2.31937026383269
  H          -0.06459045825385      2.22793715812499      0.60966396042339
  F          -2.28844358158883     -2.26115459973165      0.54670277348862
  H          -0.76173032935023     -2.21076226281077      1.82178677538817
  H          -0.36338208829489     -2.41935174394012      0.08073213155993
