20
Coordinates from ORCA-job NEB_reactant E -37.602185660310
  C           1.91934495348735     -0.24339248036949     -0.35264157437924
  C           1.35249735290676     -0.97722216823774     -1.30685549288401
  C           2.12003063551597      1.23739726359011     -0.40896571234123
  H           2.27502057355799     -0.74723375418695      0.53190856810607
  C           1.12692615206754     -2.46167239969041     -1.15986454272107
  C           4.05181150011836     -0.91817617581575     -3.39734269364157
  C           2.80402261372861     -0.97230791026030     -3.83334123925438
  C           1.77845935344985      0.04350164900589     -3.42486872669602
  O           0.84571936566181     -0.51559474454949     -2.49643867551330
  Cl          5.22830011538013     -2.10033223907908     -3.79757027813114
  H           4.42695735228521     -0.12270955706893     -2.77051841959471
  H           2.45846586588888     -1.79080972583953     -4.44757112266086
  H           1.15962439536607      0.33374828750640     -4.27693830753504
  H           2.27392069494517      0.92694175692971     -3.01633210049902
  F           3.35253681460255      1.55373574979154     -0.96098465178631
  H           2.11886655191467      1.67045423295339      0.59507464510554
  H           1.36531788586747      1.72723202273808     -1.03239643706985
  F           1.38305456052204     -2.90226365079047      0.10810022247530
  H           1.78857705809981     -3.01631165935508     -1.83709156631689
  H           0.08304620463377     -2.70098449727192     -1.39166189466226
