19
Coordinates from ORCA-job NEB_product E -37.400326251830
  C           2.99706785988385      0.41062634976876     -0.87201275567872
  C           1.51297182656702      0.11456859670731     -1.04769013256116
  N           3.37599532836323      0.58053268830342      0.50606019526055
  H           3.57475891477196     -0.41353198949982     -1.30859364650231
  C           1.05703146694166     -0.32354297231224     -2.45939180375189
  C           3.31458424306056      1.69104400016034     -1.68206846727981
  C           2.61503701892639      2.89754919158968     -1.16103498211203
  C           1.75934802791648      3.60387360979882     -1.87637027480308
  O           0.70721631999376      0.22693061886974     -0.16563856419807
  Br          5.25778144733042      1.98387551799064     -1.56984154530789
  H           3.10921727709561      1.53609170172897     -2.74262176565418
  H           2.87178415469981      3.17766568215881     -0.14918137877205
  H           1.50676309979452      3.34010238492620     -2.89028661008035
  H           1.26960058840537      4.47120555622545     -1.46987843638222
  H           2.67798846304544      1.12213709795845      1.00532192094824
  H           3.47947333072351     -0.30865118978350      0.97788352115949
  F           0.72434602727865      0.76851292945394     -3.18746874368899
  F           2.05144556556771     -0.94429961025676     -3.13203387294519
  H           0.18338903963404     -0.99079016378821     -2.41725265765036
