19
Coordinates from ORCA-job NEB_product E -40.219917160090
  C           1.55602485116251     -1.19084579733840      1.75538382269917
  C           1.21521094772670      0.24889260169008      1.45260639354674
  C           1.23080686077845     -2.06325945784883      0.53674554154871
  H           2.63230872143127     -1.25887230692132      1.95931432871726
  Br          2.09698835754310      1.48471699025568      2.69308853741026
  C           0.77755472385509     -1.59012368828739      3.03300958470158
  C          -0.70514775482545     -1.62157537626012      2.80835208005698
  C          -1.52030310067135     -0.69087655668588      3.26630554283624
  O           0.49334664195183      0.67623610540054      0.62649386128478
  N           1.26326127777067     -2.93833020252263      3.46877161804305
  H           1.04489243078951     -0.89801873088061      3.84027350141480
  H          -1.06732953233775     -2.47001788397329      2.24566436140469
  H          -1.16533427926626      0.15372823879846      3.83435889915697
  H          -2.57917251650861     -0.73342640668115      3.08448916874946
  F           2.22100857531918     -1.89831385704598     -0.39337719673238
  H           0.29061929550633     -1.76019464316230      0.06568442000202
  H           1.20852151300151     -3.12677960176016      0.79540606973683
  O           0.86098861767834     -3.89492770252634      2.85669253673593
  O           2.03375436909491     -2.95731172425035      4.38993692868692
