22
Coordinates from ORCA-job NEB E -32.840998191440
  C          -0.21120584566299      0.72435501747797     -0.89680441625744
  C           0.18784851688514      1.22980635389754      0.33930121170574
  O           0.60462625266957      0.32584504486509     -1.92833247084557
  H          -1.13067254770031      1.12041775793460     -1.31862724051736
  N          -0.81234681307203      1.90741760761497      1.06006151251874
  C          -0.86904448987531     -1.21527593163994     -0.10802954151926
  C          -0.55063827960937     -1.15323744435573      1.24468341431488
  C           0.76619465415068     -0.92851491164147      1.63447441427098
  O           1.16094557706644      0.76426604831139      1.02220022586645
  N          -2.17724270506061     -1.36675851677916     -0.51862324143766
  H          -0.15292706308105     -1.66058234748364     -0.78663678387301
  H          -1.34249436903362     -0.87074071813176      1.92629963357360
  H           1.56268988800080     -1.39162238865886      1.07100301110537
  H           0.98475627582964     -0.79235566408645      2.68177349938671
  C           1.98028680097137      0.18340209492740     -1.66111343488507
  H           2.44685087434125     -0.02173644351031     -2.62411646217754
  H           2.17904383624317     -0.64220751620557     -0.97377670599901
  H           2.39561235483228      1.09961578810593     -1.23271929735101
  H          -0.48691684167371      2.22482189763284      1.96114079311929
  H          -1.33876407817857      2.60359406409354      0.55706262713543
  H          -2.85758417169126     -0.89273046330220      0.05724138657873
  H          -2.33901782635153     -1.24777932906618     -1.50646213471302
