22
Coordinates from ORCA-job NEB_reactant E -32.866780345110
  C           1.42952317751365     -0.33105848329965      0.03410033226743
  C           1.30558087688090     -0.60583045340319      1.33490826041456
  O           1.66852871143603     -1.30658211992436     -0.91037572463243
  H           1.37974128436918      0.68950671253842     -0.32979852160328
  N           1.01965427494578      0.37685818945486      2.29693324522130
  C          -0.49256650486725     -3.88510115768137      0.15985244719537
  C          -0.61660146062596     -2.78468718561249      0.89739167048588
  C           0.19962868175101     -2.53942598099373      2.12539219817258
  O           1.43812225798499     -1.87040298535022      1.84042875951567
  N          -1.24488722322534     -4.18405331684141     -0.95947096473903
  H           0.17976500896663     -4.67468255251618      0.46605861688801
  H          -1.27465159569519     -1.98606226880527      0.58432078933640
  H           0.51186117948781     -3.48064889244827      2.58259039560950
  H          -0.36957454986037     -1.94653702291035      2.85352501567202
  C           1.09149572619266     -1.03954116946621     -2.16040843059261
  H           1.41781452213269     -1.83439762237469     -2.82929289396222
  H           1.42524402636064     -0.07216734465024     -2.55730623601370
  H          -0.00445518346450     -1.03468000272214     -2.10760610211612
  H           1.43670846136124      0.15961875458448      3.19279749146782
  H           1.23938846016540      1.31507220183827      1.99742580660187
  H          -1.71385639254354     -3.39280845658567     -1.37544082799855
  H          -0.79976373926645     -4.78438884283057     -1.63512532719047
