18
Coordinates from ORCA-job NEB E -34.754539205920
  C           0.76596142991726      0.54679543019652      0.03733829415879
  C           0.35833110785439     -2.86139730427267      1.43091384310930
  C           1.32479489439608      1.72297144562361      0.69442463119189
  H           0.42994444486022     -0.30952366818753      0.61085613568046
  C           0.14965698575329     -2.49912693074866      2.68019689655523
  C           0.23776664299056      0.45117863166495     -1.34247434448974
  C          -1.21523569102811      0.75084065775041     -1.30563471040777
  C          -2.12092593853028     -0.18830044012577     -1.57273600068185
  O           0.86226964176544     -3.09374979064715      0.40448331956991
  F           0.91175663891467      1.33214573471244     -2.24993955282751
  H           0.41434858061798     -0.56001876890362     -1.68415586153684
  H          -1.43883914006490      1.75265665771779     -0.97197158345491
  H          -1.81224584194805     -1.16767900490730     -1.92641866040020
  H          -3.15231846283581      0.08063709426308     -1.44574240152578
  F           1.49777449616343      1.52701292983916      2.03210184994822
  H           0.65111782783842      2.59703399989566      0.56391870093566
  H           2.31227852579959      2.01812497912187      0.30866988859943
  N          -0.17643614246420     -2.09960165299280      3.73616955557570
