18
Coordinates from ORCA-job NEB_product E -34.901431670810
  C           1.43066441585654     -0.55295503517496     -1.48092266448097
  C           2.12954557763328     -1.80641115275451     -0.95618611271366
  C           1.95543881348020      0.72272120479463     -0.80846596103267
  H           0.37125672135266     -0.65879047270461     -1.21525851422100
  C           2.49769465887120     -1.71769842630199      0.44802262216318
  C           1.51113765840972     -0.49832396964268     -3.02465572720120
  C           0.46903409494528      0.41365844921179     -3.60568658303033
  C          -0.79385031378513      0.07032019739138     -3.77084321041853
  O           2.31372775645641     -2.79815118590511     -1.60591650809974
  F           2.75796627064466     -0.05839836239916     -3.39831676327475
  H           1.41351747311970     -1.52000345985387     -3.41794030563174
  H           0.83318787406455      1.38972074403755     -3.89201221482180
  H          -1.15818567243093     -0.90857068423382     -3.50397783230267
  H          -1.51462386604161      0.75260053190862     -4.18487774198169
  F           3.32100604711012      0.73750455322601     -0.77662154362911
  H           1.61686945542295      0.78722534670023      0.23164638154630
  H           1.63615872015771      1.61042294505854     -1.36342297105380
  N           2.75645431473270     -1.66507122335806      1.56093565018417
