15
Coordinates from ORCA-job NEB E -30.919546028080
  C           1.17451939396373      0.63069311560544     -0.52955145927436
  C           0.52284855538567      1.26712202778068      0.54266156275090
  O           0.76657633360530      0.87338041247907     -1.79201699634342
  H           2.24502816775755      0.46767427992706     -0.48571036480894
  Cl          1.36527560188271      1.17667340152330      2.09340281737273
  C           0.42824591823037     -1.19204395616294     -0.12108360792218
  C          -0.94462738852186     -0.95689953038599     -0.17378791462856
  C          -1.52548732100663     -0.14161920438478      0.80955032060617
  O          -0.73005525156358      1.40213037825586      0.55141661937503
  Cl          1.14940825455459     -2.16487310957260     -1.36261232614741
  H           0.91983771356759     -1.32453297537553      0.83593843967520
  H          -1.44799646346956     -1.08001328752441     -1.12217918394883
  H          -1.20542313937509     -0.26821858868222      1.83625352132437
  H          -2.56374049876579      0.13338280626683      0.69840421012988
  H          -0.15440987624501      1.17714423025023     -1.78068563816059
