36
Coordinates from ORCA-job P E -40.339768576960
  C          -1.32503925633314      0.23206472295726     -2.49696960444430
  C          -0.18618066471888     -1.87215494938983     -1.16858811655456
  C          -1.49516847822002     -2.08899918361471     -1.85915911269476
  C          -2.03543829328199     -1.09092075927435     -2.53874336609909
  C          -1.02134063012843      0.53223195837402     -1.01735845024232
  C          -0.15788812130117     -0.55829204414961     -0.35269669746460
  H          -1.94764438131052     -3.06841360835397     -1.80888142139107
  H          -2.96635040180082     -1.18445182968573     -3.07503874500155
  N          -1.98505541022598      1.35848205463054     -3.14447054196518
  H           0.03861522979254     -2.71463927248583     -0.51540955598538
  H          -0.35875510774220      0.12536694868644     -3.00822557036110
  H           0.59105069558306     -1.82830586591807     -1.93720431670599
  H          -1.96870034874604      0.59639461883720     -0.48125876338507
  H          -0.61733088134509     -0.78731773999448      0.61564414180295
  H          -0.54732556740155      1.50951899718706     -0.96118194566533
  C           1.28851487241860     -0.09193720719380     -0.03313624748741
  C          -1.92861277617220      1.27101078423179     -4.58813662662600
  C          -3.33445064109882      1.62890686826822     -2.69492126678397
  H          -0.89184688964208      1.15656955235059     -4.90275009938907
  H          -2.31756431320707      2.19725772542061     -5.01104076646425
  H          -2.51160884333323      0.43233320697175     -4.99937744737726
  H          -3.35102783822940      1.72620786345871     -1.61260336431718
  H          -4.06149946614339      0.85740255860053     -2.98978002632496
  H          -3.65507249513370      2.57744944953472     -3.12682959103737
  C           1.23789691635617      1.00956130064764      1.03349804011575
  C           2.09647676182632     -1.25774322122508      0.55212846814840
  C           2.02097843645445      0.44213993673487     -1.26625512130797
  H           0.75409424426324      0.64320504755839      1.93649133483661
  H           0.69225066777682      1.88216065596673      0.68593083476067
  H           2.24598381345100      1.32620829205925      1.29256817065410
  H           1.56553509012562     -1.71427316612489      1.38474256689415
  H           3.05462668232288     -0.89599218822592      0.91974152789405
  H           2.29373633378947     -2.02154350915725     -0.19467526737065
  H           1.50914085223459      1.30102158327330     -1.69094518062966
  H           2.10867744681412     -0.32172899174797     -2.03503112493642
  H           3.02686276230684      0.75131941079189     -0.98916674709418
