36
Coordinates from ORCA-job TS E -40.245307381400
  C          -1.28025124308288     -0.19247240466484     -1.31656585469122
  C           0.08182919771864     -2.17894700701016      0.24473835589605
  C          -1.25993287233398     -2.23563624162416     -0.01231023082490
  C          -1.93413196912197     -1.27366405304222     -0.77606853256195
  C          -0.56281262608605      0.59122930964658      0.76997380388575
  C           0.28518878369593     -0.30763083556151      1.35440007964599
  H          -1.86883439702554     -2.93376567098733      0.54758472347507
  H          -3.01322304190268     -1.31122009469779     -0.79005682566373
  N          -1.87707824902296      0.88512321681896     -1.90878112583813
  H           0.51048747130587     -2.92152626634551      0.89784327129987
  H          -0.22330275811607     -0.25896699205609     -1.51302951697401
  H           0.75656332547898     -1.76463910378225     -0.48002125241709
  H          -1.59276973337583      0.64229752392813      1.07303896889360
  H          -0.08541950804179     -0.86254257834109      2.20546361628259
  H          -0.19806991109675      1.43002323896755      0.20680082309010
  C           1.78645028327065     -0.05021549328681      1.41439911712900
  C          -1.16869996085070      1.65184007474236     -2.89770208617726
  C          -3.30478380856563      1.05524860633876     -1.88100478430104
  H          -0.09584133101914      1.52927380180924     -2.76276560737618
  H          -1.41335594661936      2.71207438575291     -2.79256225838521
  H          -1.42670776319017      1.34096855490326     -3.91883984248891
  H          -3.68380496081143      0.80364287104250     -0.89161048051404
  H          -3.81590359495724      0.42929102344962     -2.62416937701174
  H          -3.54358568120717      2.09904285912423     -2.08714349232928
  C           1.97956398487381      1.06583826166537      2.45826930116781
  C           2.56325557260490     -1.27836429536935      1.89842397204872
  C           2.38329284072734      0.42359215997926      0.08678508990603
  H           1.58969131562539      0.75274504756462      3.42427401877768
  H           1.45319399416379      1.96777601247797      2.15595560887714
  H           3.03592823038441      1.30177767353880      2.57378842256308
  H           2.09829784309326     -1.70095176199115      2.78630818692152
  H           3.58398552656657     -0.99624115098562      2.15139119071702
  H           2.60933290376387     -2.04571479681426      1.13168751439324
  H           1.90812206405326      1.33919659692693     -0.25463849413740
  H           2.27770896630025     -0.33236050907522     -0.68768153769467
  H           3.44561705280041      0.62387803695831      0.21382523441653
