23
Coordinates from ORCA-job NEB_reactant E -31.587931374920
  C           2.92920085935303     -0.25404548510807      0.44270005182958
  C           2.54870616054000      0.84291446646775      1.07601952728941
  C           2.16067266572590     -1.53956199465665      0.46920559587312
  H           3.82419847380251     -0.24163475406354     -0.15981737485101
  I           3.75219156807093      2.62162256141796      0.87834825518460
  C           2.14157616599689      2.71313520985671      4.52766952679892
  C           2.49221599842805      1.57894777603827      3.94204980661646
  C           1.52866592280692      0.69556062777879      3.20957038394347
  O           1.43744545358534      0.99964661091078      1.80771433855723
  C           3.08474460893843      3.63442361787332      5.21768658279621
  H           1.10448425440083      3.02459815699027      4.51399834270221
  H           3.52712973072151      1.26277037156201      3.93822013791900
  H           0.50911365237696      0.84554957242772      3.57149396632174
  H           1.80958506079961     -0.35959586197823      3.32599239902791
  C           1.88534762154465     -2.03324431647694     -0.94933108367774
  H           1.21801148111917     -1.39827417133428      1.00057753141387
  H           2.74927716725498     -2.29296978091891      1.00275922339567
  H           1.29224625659123     -1.30329447629401     -1.49515114060459
  H           1.33818568011789     -2.97243016559870     -0.92113811443852
  H           2.81772628136503     -2.19173900258507     -1.48659150753353
  H           4.09611864895260      3.23679646664250      5.21254460550149
  H           2.76848223329329      3.79717649417189      6.24737248510015
  H           3.08627405421427      4.60154807687644      4.71580646083438
