23
Coordinates from ORCA-job P E -40.440493626180
  C          -1.30761510363471      0.12220455674364     -2.60160806935842
  C          -0.23516840339345     -1.72026342906667     -0.85307554842408
  C          -1.64484482566888     -1.91108821050944     -1.31841949726556
  C          -2.16321611036190     -1.01860856343991     -2.14490591857897
  C          -0.57478118447533      0.75967138339632     -1.39459166154212
  C          -0.06774292372220     -0.26841332248981     -0.36516055642804
  H          -2.20108823020903     -2.76083137259502     -0.95857727211718
  H          -3.17051022446745     -1.05369826153041     -2.52252302088708
  O          -2.12383377675503      1.05395923873186     -3.27353738452452
  H           0.01096663136018     -2.41294039617094     -0.04995940516123
  H          -0.54377965651359     -0.26712774752003     -3.30156296996853
  H           0.45361199527076     -1.89748951792295     -1.68362298477302
  H          -1.28073536670691      1.43926968031203     -0.91586117542676
  H          -0.64947043349685     -0.16620824499827      0.55639838249709
  H           0.25905792609127      1.35288154538673     -1.76983249907256
  C           1.38238100332666      0.01776573667960      0.01204604310313
  C          -1.43082888361215      2.02247431837665     -4.01872278515909
  H          -2.18295546371440      2.55843038057087     -4.59464589651342
  H          -0.71250991016808      1.55590324734356     -4.70432401354013
  H          -0.89806821602617      2.73312894279427     -3.37744814308582
  Cl          1.54355152670923      1.67358458349597      0.65526662219276
  Cl          1.95105901238436     -1.09830463586016      1.27580378112153
  Cl          2.46695061778366     -0.13671991172789     -1.38633602708799
