23
Coordinates from ORCA-job TS E -40.343460626410
  C          -0.86405843010108      0.11926978278146     -1.08280526154940
  C           0.39177214716709     -2.10944001101392      0.24808930596326
  C          -0.93898640966775     -2.06370361923116     -0.01504888987012
  C          -1.55608699092563     -0.99163406565118     -0.68402601799827
  C          -0.29700771149500      0.73136356969834      1.02181677590173
  C           0.51755335951589     -0.20559473124378      1.58579553394721
  H          -1.59194554095375     -2.79084151706298      0.44766026235174
  H          -2.63443744966720     -0.94866879701661     -0.72078442824091
  O          -1.53738628833236      1.16879856803185     -1.60630645072618
  H           0.79089259003133     -2.90655560813401      0.85235139996593
  H           0.19772116587337      0.08329039742513     -1.28880073159057
  H           1.10602588566117     -1.59002496773129     -0.36200045871998
  H          -1.33054447287434      0.78590637318462      1.30701661769825
  H           0.15241946510181     -0.86974385365423      2.35116403252742
  H           0.12683797464190      1.60805362589009      0.56577129611976
  C           1.99138727450896     -0.00709215624305      1.59516315424936
  C          -0.75357506778364      2.19483160196926     -2.17051581314361
  H          -1.44795003695565      2.89500410934467     -2.63085000124661
  H          -0.07107002414774      1.80353232670352     -2.93109943458140
  H          -0.16971850714009      2.71713743795338     -1.40536024297183
  Cl          2.62497906620236      0.55786597846623      0.03584120534551
  Cl          2.40376481072057      1.27559864665180      2.81146705792758
  Cl          2.88941319061978     -1.45735309111815      2.07546108864113
