17
Coordinates from ORCA-job NEB E -40.246821763610
  C          -0.69118311751948     -1.35278222569605     -0.11485474678121
  C          -0.18269735149011     -1.55120063625762      1.17647703022592
  Br          0.28267882283649     -2.18888311617531     -1.52543454467496
  H          -1.75981530487727     -1.45083649948949     -0.26567495946716
  Cl         -1.35773444301558     -1.26117671189497      2.47087438074267
  C          -0.29618927102576      0.57048701972483     -0.23496008520801
  C           1.07303726608834      0.61724083350386      0.05267010134444
  C           1.50602605747025      0.21232262641447      1.33449026890601
  O           1.03742315589105     -1.40073074113541      1.44709142396559
  C          -0.79199964166891      1.14486962200502     -1.52935139504973
  H          -0.97741757358185      0.83261643989725      0.57567926074183
  H           1.78155007377624      0.58430688702956     -0.76319505619977
  H           0.95812345340307      0.59100872625234      2.19215768279710
  H           2.57305423543578      0.14288471108802      1.49537516930873
  Br         -0.95336321377723      3.10134192315459     -1.23940554421711
  Br          0.37242956940365      0.89665667604537     -3.05761800820835
  Br         -2.57392271734869      0.51187446553353     -2.01432097822601
