17
Coordinates from ORCA-job NEB_product E -40.295425761510
  C           2.11619804294281      1.66841926907667     -1.82711286865062
  C           0.69608505406224      1.34347665482202     -2.22731487837801
  Br          2.26113384138010      0.80836828724775     -0.06513262815186
  H           2.85101008756347      1.16276227144270     -2.45655198206449
  Cl          0.58477019822747     -0.15857789980657     -3.12150254742134
  C           2.36160186242125      3.17809420329297     -1.72086997528023
  C           3.44263524186143      3.51189876304430     -0.72770657773156
  C           3.30806919227391      4.43963277943862      0.20082453014126
  O          -0.26549932020328      1.96971789652180     -1.92892475255700
  C           2.73702769320589      3.75108669531246     -3.08758367356529
  H           1.42179301587619      3.65518106651521     -1.40831409986668
  H           4.35833188133495      2.94484316205357     -0.82337697346168
  H           2.40250434086375      5.01300580544566      0.31355562871282
  H           4.10376580611190      4.65748825771196      0.89033666731990
  Br          2.85112545301547      5.69246052489557     -2.98311422207003
  Br          4.46544728037386      3.08069703646761     -3.70105608729309
  Br          1.41570032868859      3.30384522651771     -4.47115555968209
