17
Coordinates from ORCA-job NEB_reactant E -40.282352059130
  C           0.96260174118104      0.69421331487737     -0.96144509266343
  C           2.14851290841865      1.17607783672787     -0.60058867047248
  Br         -0.60132215734420      1.67200833108462     -0.59294966011633
  H           0.81809149840116     -0.24881404008605     -1.45358461200288
  Cl          3.58107634848327      0.27911265925491     -1.02169944127028
  C           2.30057777739827      3.88598349251991     -2.19525875529017
  C           3.40132315579311      3.76119128682371     -1.47027784957911
  C           3.41512125320805      3.12118599075166     -0.11517127567114
  O           2.28845484822062      2.29453866640304      0.12097865597769
  C           2.20730769978517      4.44067848743067     -3.56023746029331
  H           1.34307471383740      3.55509953373238     -1.80956727909683
  H           4.36225268142244      4.10727007112559     -1.82383768499764
  H           3.36786290440973      3.88710449529230      0.66541110330174
  H           4.34189774071566      2.54942557388600      0.01152005130288
  Br          0.89309818203463      5.90721784155044     -3.59527202997963
  Br          3.87759725463299      5.11479675851969     -4.28110629586344
  Br          1.56177144940204      3.01430970010589     -4.77031370328564
