18
Coordinates from ORCA-job NEB E -30.203486168000
  C           0.75921857138001     -0.70003839892613     -0.77087752598273
  C          -0.60156195144045     -0.95314226889791     -0.50988700456648
  F           1.69195079839617     -1.50620131184947     -0.20968514062260
  H           1.07201813879299     -0.44339368283502     -1.78207222981057
  C          -1.62710862818690     -0.35939999394578     -1.44316437366849
  C           1.02983617652454      0.89234547873262      0.28337827150005
  C           0.66775177667122      0.41802538377740      1.55736629234004
  C          -0.65547045330519      0.01428371982537      1.78232065424457
  O          -0.94713591057623     -1.27766921030868      0.68378562597362
  O           2.34149137805750      1.23306002261553      0.10728262087072
  H           0.31809483919714      1.53548926536310     -0.23911226220805
  H           1.46337776520119     -0.00432818508078      2.15108160214965
  H          -1.45148859180902      0.66079346132657      1.42856133100821
  H          -0.87525900082760     -0.46665381103526      2.72400365183459
  H          -2.52761003106268     -0.96756253080622     -1.41750843152982
  H          -1.25477170498772     -0.30625878103565     -2.46125012485982
  H          -1.89774806465593      0.64526928459909     -1.10848518042073
  H           2.49441489263095      1.58538155848122     -0.77573777625215
