18
Coordinates from ORCA-job NEB_reactant E -30.246802557460
  C           2.59817276965532      1.18453561139836     -0.26089333797256
  C           1.45649807473427      1.81474721697785     -0.00254114809090
  F           3.58176623967321      0.92073797227347      0.63806822817949
  H           2.85654194582331      0.82039010955038     -1.24068240937437
  C           0.45942286996034      2.03739701128639     -1.10315136757417
  C           3.13520124477793      4.17704295605388      1.40695433766364
  C           3.00592236644553      3.17907153855273      2.26774679672572
  C           1.81172528812371      2.27099188133535      2.32385194785066
  O           0.99387328859182      2.31884773018087      1.17055873355055
  O           4.19710468396137      5.01046838347469      1.31177638702740
  H           2.37570634352007      4.42455897978620      0.68006389252635
  H           3.78561705382838      2.95545112918029      2.98232397869587
  H           1.14324376167750      2.57599728787713      3.13845689040940
  H           2.13868875746902      1.24292704976167      2.52246871094936
  H           0.32392461386155      3.10536853139911     -1.26205427693345
  H          -0.50182463340932      1.62180060636825     -0.80896165210384
  H           0.78767147345409      1.57526212796847     -2.02731459855572
  H           4.86904385785191      4.75620387657493      1.95702888702657
