20
Coordinates from ORCA-job NEB_reactant E -32.917349406350
  C           2.51217273978396      1.32442789000841     -0.32875677722564
  C           1.54906013664099      2.23372965777578     -0.22133382739671
  F           3.24119653184108      0.81913572442815      0.69901148240339
  H           2.81110464072654      0.89900088259638     -1.27166749781282
  C           0.79867305615212      2.67995986583133     -1.44956084340902
  C           3.58327266374455      3.94280237062899      1.58070481370714
  C           2.98077600518006      3.09959984677208      2.39732673757217
  C           1.60958671515549      2.53978240000286      2.15525691865780
  O           1.06390805845674      2.84902041359205      0.89203442254098
  Br          5.30910911744079      4.63160290981622      1.92080911877390
  H           3.15399020718332      4.31225461848742      0.66342020055824
  H           3.45642517835069      2.75846865241983      3.30470292320520
  H           0.91157172253445      2.98333702875223      2.87564222002770
  H           1.62539448791248      1.45591964179771      2.32419137075371
  C          -0.52946100421591      1.93309487516584     -1.57309124769673
  H           1.40701086942823      2.50854028023569     -2.33674198887749
  H           0.60088262923248      3.74866131690389     -1.35636171012901
  H          -0.35540310787903      0.86519748442381     -1.67978046862856
  H          -1.07813566080252      2.28538732140577     -2.44256417094542
  H          -1.13673498686649      2.10027681895556     -0.68754167607883
