19
Coordinates from ORCA-job P E -21.091540944110
  C          -1.32008159299250      0.37137848022318     -2.37089481216228
  C          -0.01187751352357     -1.62182794410061     -1.01644995218842
  C          -1.40343028473228     -1.88997205648820     -1.49267565433216
  C          -2.03466732660627     -0.92641479208448     -2.14457630974066
  C          -0.70935208559078      0.84361381234266     -1.03752789295841
  C           0.03633608398046     -0.27124761999452     -0.28371115103675
  H          -1.85613311410332     -2.84731784102838     -1.28505539382571
  H          -3.04459875872242     -1.03246452016324     -2.50974018845947
  C          -2.23353150868896      1.44010967621827     -2.96089636532893
  H           0.34396204152562     -2.41304491269459     -0.35593551260176
  H          -0.49343767276192      0.19071522479506     -3.07160497634294
  H           0.66009965811762     -1.57796056487596     -1.87989748614349
  H          -1.52236022475654      1.22154003897095     -0.41474670017432
  H          -0.41480747353631     -0.40462271482664      0.70096786422822
  H          -0.03712437035844      1.67981622171543     -1.23723529374437
  H           1.07964811577150      0.00842216935092     -0.12890667692743
  H          -2.62785636811658      1.11532909459129     -3.92146955580319
  H          -1.68944589101886      2.37061497831485     -3.10986072973134
  H          -3.07023171388643      1.63565326973402     -2.29295321272659
