19
Coordinates from ORCA-job R E -20.994603109960
  C          -1.54900699323162      0.07776199915275     -2.89778357362473
  C          -0.11938191038703     -2.27251616563358     -1.61690391298606
  C          -1.43192771328727     -2.06848549136286     -1.65364600014397
  C          -2.10812781873155     -0.90136537499121     -2.18959546653945
  C          -0.51640138729285      1.36764660690051      0.00380361085296
  C           0.29064550439029      0.42218896368049      0.43631991654318
  H          -2.08927430166456     -2.82308377148439     -1.23869761083359
  H          -3.17166500151449     -0.85174942088010     -1.98772915034782
  C          -2.28680515434869      1.25861487305952     -3.42642741030425
  H           0.29858847665619     -3.17146005466405     -1.19722369768791
  H          -0.49399844075617      0.04793940695962     -3.13161654457846
  H           0.58544373555070     -1.55375290951602     -1.99692160772659
  H          -1.57545614211576      1.34675791274383      0.19930401403156
  H          -0.06945179515229     -0.41896827450190      1.00460220459260
  H          -0.15708741870129      2.20782335299198     -0.56773301059096
  H           1.35029082492298      0.44224409841690      0.24050697116310
  H          -2.21400885727525      1.29391605231696     -4.51387306925879
  H          -1.84718724094508      2.17842764701185     -3.04035496887809
  H          -3.33697836611627      1.22493054979970     -3.14592069368273
