19
Coordinates from ORCA-job TS E -20.982710689230
  C          -0.39661267763531      0.35445584026642     -1.01483930758093
  C           1.06996507481421     -1.74489241421845      0.31264489904941
  C          -0.26949586269548     -1.80699572275950      0.10128986743998
  C          -0.98590163163793     -0.77433250859831     -0.54313346692392
  C           0.47231021410787      1.08857299484038      1.03776446620591
  C           1.12452366158438      0.07197415434794      1.64672650436679
  H          -0.84924296225819     -2.55877166523106      0.62059041204664
  H          -2.06632933743778     -0.80895420129516     -0.48217565789225
  C          -1.18468585611965      1.49504745652735     -1.57358794725730
  H           1.55970532384267     -2.49872925293746      0.90804464290704
  H           0.64654140298608      0.34316173646214     -1.28790515894560
  H           1.71405333638584     -1.18911269832163     -0.34401977323546
  H          -0.54047695955638      1.33420493397925      1.30283297450143
  H           0.64476301607665     -0.49665647619826      2.42442524011480
  H           1.01106579637727      1.82746703899753      0.47050633345085
  H           2.19792902977515      0.00201676767400      1.60422307643020
  H          -1.21907542871849      1.42376187492231     -2.66231385643982
  H          -0.72377313481399      2.44873687669310     -1.32343350824112
  H          -2.20526300507689      1.48904526484943     -1.19763973999665
