15
Coordinates from ORCA-job NEB E -26.509843772490
  C           0.45890977915716      0.95061203504582     -0.01318021810301
  C           0.89288221626158      1.96546794526257      0.90014998523850
  C           0.42293372771571      1.13897094942306     -1.44744504830976
  H           1.44097164837289      1.57845648113548     -1.52718686260088
  H           1.21613218832055      2.91518512067909      0.43261291422022
  C           0.21624134967199     -0.41804475681472      0.44432396032189
  C          -0.83804946571960     -1.14472126133137     -0.28607602481574
  C          -1.68573178967112     -1.98914164435213      0.27675052265838
  O           0.83440330019567      1.85025760499525      2.10847668344593
  I           2.13423451877870     -1.62357871980759      0.34624563885275
  H           0.06314902298468     -0.38476391534309      1.52511638385067
  H          -0.89731527111856     -0.92608195615640     -1.35254308336217
  H          -1.64286568594940     -2.22605256762633      1.32757886425854
  H          -2.45213312860044     -2.48023163645886     -0.29604685084657
  N          -0.16376241039983      0.79366632134922     -2.43877686480873
