26
Coordinates from ORCA-job NEB E -31.296663704050
  C          -0.24090617740866      1.38596514874873      0.86595934166964
  C          -0.69636070648815      0.14825857824432      1.05146440013695
  C           1.10398809753123      1.73142121645456      0.30717607380158
  H          -0.86005552868825      2.21564890392462      1.17175208595608
  C          -2.04375917776612     -0.14196679214311      1.64466028824196
  C          -2.39396996195143     -2.94598473341131     -1.03068874018198
  C          -1.36405503346573     -2.26962410748861     -0.66315851958467
  C          -0.43216965235059     -2.17605687738306      0.52397914521825
  O           0.12536060478323     -0.90773469533030      0.71241731530781
  C           0.87538702424679     -0.55919921345826     -3.18459434186730
  H           1.31610814597355     -1.25489215728041     -2.48142223524242
  H          -1.10279307459848     -1.58142030794499     -1.47298767490587
  H           0.42554168782591     -2.83521081449954      0.34152914754724
  H          -0.96446991614331     -2.53396589925396      1.41478944589787
  C           2.00075656998117      2.40236034184287      1.36533696128912
  H           0.96861936332050      2.41172627789234     -0.53917203382270
  H           1.57465113678216      0.82103503414884     -0.06163207902030
  H           1.48372789849889      2.46232541234689      2.32056694548718
  H           2.27620483059807      3.41139680996833      1.06860618423401
  H           2.91380822871430      1.83383354554081      1.51672707135995
  H          -1.94258908638510     -0.72706578241237      2.55996430234499
  H          -2.67354720895223     -0.69889964284096      0.95156068917349
  H          -2.54040377923583      0.79226099023898      1.88641812291565
  H           0.92922953851009      0.44365216187560     -2.78071833978962
  H          -0.15903565354346     -0.82323425285646     -3.36979361402451
  H           1.42073183021149     -0.60462914492360     -4.11873994214239
