26
Coordinates from ORCA-job NEB_reactant E -31.443774103670
  C           2.00743665512415     -0.34775205799294     -0.14788409068704
  C           1.47750508245103     -1.54891896977765      0.07129734480644
  C           2.22125274467974      0.44618639485639     -1.40725253407977
  H           2.34076115164443      0.17010683494399      0.74090603927267
  C           1.38424930840927     -2.11424200452710      1.46544659705774
  C           2.58762832585625     -2.10048508742991     -4.01340084837525
  C           2.21346909738193     -2.57762184540145     -2.83801681688139
  C           0.89366746392122     -2.28997534186748     -2.17966043241844
  O           0.92194397476660     -2.46669671990845     -0.78160515623693
  C           3.88495935248273     -2.41225137418634     -4.68020082175681
  H           1.92868491975979     -1.43661225478761     -4.56024620304035
  H           2.85823682386763     -3.24341270140804     -2.28022539340429
  H           0.15975168759700     -3.03443119743588     -2.51804322857660
  H           0.51818127765791     -1.29764510292005     -2.45176958633188
  C           3.29681847473901      1.50921268767561     -1.19807339582170
  H           1.28928638300942      0.94646261636937     -1.69568982909387
  H           2.52646048322679     -0.19875854280553     -2.23152310869549
  H           3.00795211272890      2.19935030534757     -0.40804119082198
  H           3.45027434196296      2.07899780588102     -2.11222317702182
  H           4.23988498165799      1.04345613638203     -0.92053207695561
  H           1.96023585988296     -3.03606756436322      1.52620603557895
  H           0.34784293447144     -2.35725628921741      1.69177869104932
  H           1.75778291119257     -1.41016021807242      2.20095043354566
  H           4.48988656428533     -3.07383217534270     -4.06555824945557
  H           4.44298533520161     -1.49487201528278     -4.86667217009718
  H           3.70686175204136     -2.89018131872903     -5.64326683155880
