26
Coordinates from ORCA-job NEB_product E -31.458974623360
  C           2.49282182917287     -0.95156852610147     -0.97421007735227
  C           1.33106096174362     -1.45613924569899     -0.13090037057092
  C           2.34216592687316      0.56215786281749     -1.16906275559689
  H           3.42872893977861     -1.15679217713990     -0.44480862699495
  C           1.68238526152270     -2.57655606014598      0.81899067345670
  C           2.47820493702216     -1.81144960395107     -2.27437518181112
  C           1.56571186587939     -1.22893332166923     -3.31172921951670
  C           0.33534869408538     -1.65064171842901     -3.53276097366652
  O           0.21695589767596     -1.00723609331427     -0.21657148240070
  C           3.88497925803261     -2.02040562421760     -2.83677183319489
  H           2.08468542400918     -2.79894769504440     -2.00156318464141
  H           1.97686892713059     -0.41868740914115     -3.89837613102984
  H          -0.10142908614478     -2.45360910524492     -2.96216944789207
  H          -0.29478819592908     -1.20336272411970     -4.28253935669374
  C           3.53913104461269      1.24382929627987     -1.81872786821013
  H           2.19209989028172      0.99888790422486     -0.17748893167316
  H           1.43696240777257      0.75637472294817     -1.74490973575044
  H           4.46194179008576      0.96838175148517     -1.31157540871298
  H           3.42575210139258      2.32390930835635     -1.75482904740588
  H           3.62777220121658      0.98138485245432     -2.86902239998185
  H           2.33365927855076     -3.30430555018141      0.34219996750642
  H           0.78074597302751     -3.06138361926982      1.18377453267851
  H           2.21623532954033     -2.14857358655523      1.66657056461151
  H           4.52493011807347     -2.49991983277957     -2.09876216543877
  H           4.34103580075739     -1.07915817322096     -3.12647930315719
  H           3.83593342383630     -2.66235563234153     -3.71420223656069
