22
Coordinates from ORCA-job P E -41.162239539840
  C          -1.36403883064006      0.33625061631454     -2.37333956424885
  C          -0.11438447323292     -1.71572513408318     -1.06463322600088
  C          -1.50023566011418     -1.94387670754074     -1.57432000815642
  C          -2.11021270238942     -0.95460116327028     -2.20657752888149
  C          -0.75547007672027      0.77407146720028     -1.02867879612130
  C          -0.04136315776178     -0.37978029699694     -0.29850783203068
  H          -1.96472903619008     -2.90306631914798     -1.41586709338472
  H          -3.10589594370950     -1.03335260961583     -2.61130712473337
  C          -2.27142584276014      1.43244219984646     -2.91640621880911
  H           0.21180506520308     -2.52534071692417     -0.41260927382851
  H          -0.55038630048928      0.19498935826937     -3.09626298304626
  H           0.57550795471402     -1.66631106854474     -1.91295501421393
  H          -1.55872748887807      1.15870251519376     -0.39760087749334
  H          -0.49810191498550     -0.52689334555848      0.68453724053533
  H          -0.05819892820987      1.59283274538787     -1.21349799140839
  C           1.42047432161440     -0.01768718404902     -0.04068257310764
  F          -1.59597231976182      2.60055560065503     -3.05737235852914
  F          -2.72963564267302      1.11361540095144     -4.15053398225157
  H          -3.14606002679924      1.63043285517080     -2.27605254241951
  F           2.04407562224762     -0.99530617848499      0.66199345900887
  F           2.10819745727058      0.10870618599798     -1.20105187149412
  H           1.54236792426546      0.92177177922882      0.52129616061503
