20
Coordinates from ORCA-job NEB E -51.204323360530
  C           0.84183099097164      0.43841049909656      0.29191980518364
  C           0.01995357683738     -0.55881906188567      0.86258039463283
  C           0.63601757985972      1.83284158461920      0.83105013824239
  H           1.90667948542060      0.20366945485790      0.27919611110781
  C           0.55337865183698     -1.93698497055012      1.12817916362606
  C           0.29937468355985      0.25372138400480     -1.52859326022998
  C          -1.08283142376254      0.43196594172697     -1.48579962838826
  C          -1.85275842621652     -0.45350611665617     -0.64133486611070
  O          -1.28464722172858     -0.42077206928815      0.78897995715959
  I           1.39006990952796      1.44316089891958     -2.92300897403938
  H           0.68129189277073     -0.75724536552494     -1.60070448268754
  H          -1.53090934930307      1.35109702705798     -1.82892269890808
  H          -1.76311102261776     -1.50931958574687     -0.89979212968547
  H          -2.89091080825768     -0.15795675988562     -0.51715393678678
  Br          1.05820010898366      1.73301813837453      2.77384677718439
  Br          1.87831243504859      3.14263464164958      0.11977382820738
  Br         -1.14703200261774      2.55652937322150      0.70548427115503
  Cl          0.59652391486460     -2.92616805375352     -0.40168933867042
  Cl          2.20103762143228     -1.89155153409924      1.77606617409432
  Cl         -0.51047059661012     -2.77472542613828      2.26992269491315
