20
Coordinates from ORCA-job NEB_product E -51.241583441830
  C           1.61215820007694     -0.19190965030597     -1.64860399204914
  C           0.95156608915392     -1.26620856816374     -0.79379971196022
  C           1.28991708101992      1.16337643814152     -1.03528761065572
  H           2.69878378877080     -0.31911974827630     -1.59098392095756
  C           1.86784903605387     -2.41072446372184     -0.32552440667500
  C           1.15358582685960     -0.43115401716803     -3.11028069355086
  C          -0.04841637176909      0.31298445530925     -3.57025187042867
  C          -1.18070493660774     -0.29443118348471     -3.88044489175559
  O          -0.21777097825933     -1.29250285917210     -0.55387184517632
  I           2.81024373338467     -0.04092708709586     -4.48749522980680
  H           0.97988592787773     -1.50195068269956     -3.22612969530260
  H           0.05470617952609      1.38187205903247     -3.69785856939351
  H          -1.30255435669143     -1.36065042825996     -3.78245636207865
  H          -2.03544961722394      0.25984095657405     -4.22441537125119
  Br          2.06007885440795      1.19730079584025      0.77592701480277
  Br          2.11212650044656      2.60861718164804     -2.03860282813085
  Br         -0.59744949001342      1.56230425107760     -0.82789689190994
  Cl          2.04123416459922     -3.45275707979777     -1.77234535290473
  Cl          3.47511205963070     -1.88569717975864      0.20104596883888
  Cl          1.08039830875697     -3.31956318971870      0.96907626034570
