20
Coordinates from ORCA-job NEB_reactant E -51.243010629440
  C           1.86517899093495     -0.09960976696260     -0.05333370938760
  C           1.15517544135709     -0.92858615622182     -0.84237314391615
  C           1.84767106024542      1.34920229104869     -0.32094932073861
  H           2.44974766624415     -0.45811442803303      0.77475573139915
  C           1.16905840243186     -2.42067531260265     -0.64826642967324
  C           0.27857319923385     -0.20039564724106     -5.14431026592047
  C          -0.32849263646760     -0.01081199164592     -3.98912346620239
  C          -0.25285876729352     -1.00570685386241     -2.86791157715722
  O           0.45458019092948     -0.34502628647228     -1.81926945781547
  I           0.20524344673610      1.18370121799359     -6.71400149016190
  H           0.84328788854472     -1.08703675198157     -5.38066983403255
  H          -0.87301038855663      0.89551892675663     -3.77162088287228
  H           0.26005839195828     -1.91441364632421     -3.18766426404762
  H          -1.26200469130303     -1.25034526422151     -2.51618272350796
  Br          2.96273172222236      2.31190307893110      0.93603695321558
  Br          2.49473608732060      1.74909526533567     -2.13742803141345
  Br          0.02854213363576      2.08410590710038     -0.20423601774169
  Cl          2.08953717874587     -3.18103014131096     -1.99078571646240
  Cl          1.95391656036685     -2.90250025414149      0.86637694075274
  Cl         -0.49007187728654     -3.07687418614452     -0.61544329431648
