23
Coordinates from ORCA-job NEB E -44.598277526180
  C           0.50117578782197     -0.44049718731324      0.73333911016189
  C          -0.86733183581508     -0.55950477809157      1.01451271385592
  C           1.24890383317266      0.65578841337047      1.46316872723485
  H           1.07366540903085     -1.36244597238829      0.70123532717485
  C          -1.57054721219615     -1.88710711631272      0.90285771839090
  C           0.43491632123640      0.14089166362513     -1.11224440885573
  C          -0.37938588784821      1.26618955079920     -1.00231917625173
  C          -1.71863128598645      1.11547437348030     -0.50805181206863
  O          -1.61499981872619      0.51648934484176      0.95087505430829
  C           1.84709412446757      0.29152664159100     -1.60714420482315
  H          -0.03768644166386     -0.76686038200019     -1.47260340094459
  H           0.08480500499855      2.23988259232211     -0.92727507989019
  H          -2.32332216351042      0.36952130028962     -1.02000587748728
  H          -2.26653983991485      2.03748103416832     -0.34569788853965
  F           2.58416649722651      0.63313517080779      1.16337170166399
  H           1.17630941351310      0.47862545510693      2.54335882736966
  H           0.87244419488754      1.65453294591691      1.23118916217684
  Cl         -1.88599566739391     -2.38032557926759     -0.81650070833317
  Cl         -0.61585868573142     -3.18131678764504      1.64193752513058
  Cl         -3.14490942000077     -1.79585661067458      1.71089445482758
  H           2.46597109980749     -0.54317145864987     -1.29027127611229
  H           2.30094195801955      1.21421106499394     -1.25801036722631
  H           1.83481461460512      0.30333632102959     -2.69661612176263
