23
Coordinates from ORCA-job NEB_reactant E -44.619792564910
  C           1.73465686259165     -0.10297902823309     -0.09539191625197
  C           1.39765576302983     -0.60135253665769     -1.28723503653681
  C           1.92723099857727      1.35198510175843      0.19826035816358
  H           1.89133782002395     -0.77714712986357      0.72983387728341
  C           1.14484582799961     -2.08076374775428     -1.49937334344392
  C           2.61368215472774      1.17609960535197     -5.35725435330512
  C           2.73257286950552      0.50507233282975     -4.22361855150133
  C           2.22065810066033      0.98863484483082     -2.90193386445684
  O           1.21058703814322      0.07347503435630     -2.43860743673030
  C           3.12119308184275      0.70560028907186     -6.67624428663454
  H           2.13297909294088      2.14647148928907     -5.36074251604555
  H           3.20074885181330     -0.46936179336643     -4.20512226927301
  H           1.75529521805830      1.97362001681232     -3.00794841232806
  H           3.04115437891898      1.04229658500991     -2.18142559988563
  F           3.26461026232301      1.70060702931007      0.15314062344394
  H           1.58848910690821      1.58078345816878      1.21337509833526
  H           1.41220172081948      1.99066230185751     -0.52454430944401
  Cl          2.56090527067356     -2.76578474004814     -2.34716868069839
  Cl          0.90165959238327     -2.98658847219655     -0.00626542385296
  Cl         -0.28724681515028     -2.29720970036972     -2.52703461005410
  H           3.58470257442211     -0.27343996166563     -6.59104228816486
  H           3.85251644411876      1.41084182151450     -7.07002741026425
  H           2.30176378466857      0.64887719999380     -7.39182964835453
