23
Coordinates from ORCA-job NEB_product E -44.633661715370
  C           2.10711777744031     -0.11111064186501     -2.18275368471339
  C           0.77060759576070     -0.78616186837757     -2.34368845690851
  C           2.02867869676329      0.78671488440873     -0.93522453752336
  H           2.90312718570585     -0.84251720482789     -2.02684509860041
  C           0.75883062674292     -2.31466240612002     -2.11128095955189
  C           2.40106017107037      0.73070962775822     -3.45044552516559
  C           3.66021995943637      1.52384633790954     -3.26559576931329
  C           3.71883584609159      2.84060131411398     -3.31430669363104
  O          -0.24995464701758     -0.21123225398101     -2.58521446257665
  C           2.53550356760749     -0.17186070680251     -4.67760348749012
  H           1.55639172980861      1.41098791520074     -3.59948225372918
  H           4.55349993213313      0.93831287116147     -3.09789699680192
  H           2.84048302955396      3.44368169111170     -3.47918384042517
  H           4.64594378659704      3.37302060187599     -3.19322636145825
  F           3.28733599549107      1.09559412476065     -0.50086340257406
  H           1.53145299493207      0.27321423209541     -0.10600153599224
  H           1.51879102100773      1.72819323461186     -1.15708716523776
  Cl          1.99004951676153     -3.13858014709740     -3.07857717320156
  Cl          1.11904789186562     -2.55536215249382     -0.38028422530474
  Cl         -0.83091650543327     -2.99187508277744     -2.48143774843737
  H           1.61067908593632     -0.71363671255827     -4.86232168064558
  H           3.34046134742800     -0.89020654479799     -4.54174558742741
  H           2.76015339431687      0.43372888669064     -5.55223335329051
