20
Coordinates from ORCA-job NEB_product E -53.220155939790
  C           2.57379225595735     -1.72731142830080     -0.27825462152346
  C           1.30023715948064     -2.23710278467433      0.38699088279664
  C           2.32556003611788     -0.35572552185164     -0.91887549660947
  H           3.36236148459140     -1.58435773978497      0.46688162482531
  C           1.32707074083130     -2.35131866208232      1.92084403143680
  C           3.04612387098117     -2.71345032242049     -1.35911460342066
  C           2.15245611785079     -2.80674038501797     -2.54273265470997
  C           2.59392547760198     -2.65027862008315     -3.77833609104236
  O           0.30009590921158     -2.48957741531466     -0.21215300031201
  I           3.22133129784751     -4.68681475340012     -0.43208380013228
  H           4.06230620937389     -2.45427494227141     -1.66194478041113
  H           1.11239869088237     -3.01783264193225     -2.34006097653978
  H           1.93019986220287     -2.71908133974740     -4.62141274699611
  H           3.62925548008999     -2.44088094538105     -3.99444283516948
  F           3.36584368175334      0.00637610632499     -1.68480149895573
  F           1.24163097285511     -0.30121070757732     -1.68745229855768
  F           2.19419281304949      0.59692042518131      0.01128179540878
  Cl          2.90099921231364     -2.71162463609402      2.63150749002666
  Cl          0.81076841273147     -0.71071169014104      2.43534416916331
  Cl          0.14745031427625     -3.55110199543134      2.45211541072262
