20
Coordinates from ORCA-job NEB_reactant E -53.212668506290
  C           1.64684504831133     -0.18002916522652      0.01550929019507
  C           1.56129031674281     -1.49036612739243      0.27897596774060
  C           2.00520863421394      0.52150964882256     -1.25044584574198
  H           1.42108048088782      0.51424026370452      0.80854013296051
  C           1.20038166225375     -1.95631177766304      1.68366976695850
  C           3.65552834185396     -4.37974484778520     -2.70942362402556
  C           2.51607521586691     -3.95939241538904     -2.19598367485332
  C           2.28463222012159     -2.53638048365025     -1.78892138082684
  O           1.78357348933863     -2.57622469524437     -0.45294416600734
  I           3.97340799709131     -6.36069074655857     -3.31383997345689
  H           4.50332715439161     -3.73750626442206     -2.88061085674418
  H           1.68341104211711     -4.62584090775053     -2.02790099397311
  H           1.53647929392458     -2.08652568945317     -2.45276126355662
  H           3.21568338573861     -1.96509330856304     -1.83609632867825
  F           3.27615644554330      0.31236707663458     -1.65655942094042
  F           1.23009985818258      0.19101547483073     -2.30290943594373
  F           1.88141617643957      1.84260616186855     -1.09939866735260
  Cl          2.71893206401829     -2.49583310336180      2.45386371225936
  Cl          0.46451950120056     -0.71463288648309      2.69333305196046
  Cl          0.08345167176172     -3.33066620691782      1.58850371002634
