18
Coordinates from ORCA-job NEB E -38.453519776740
  C           0.37251425868095      0.98629280188591      0.55944915599121
  C          -0.84485312930378      0.26930636953003      0.66793663197976
  C           0.35942375289109      2.15673808518846     -0.26101409214184
  H           0.94333832099829      1.12321143008024      1.47659077074472
  C          -1.05453992146035     -0.60609146340509      1.89344602043156
  C           1.37920729202873     -0.19530148110925     -0.50150582535520
  C           0.57550798038534     -0.34786143042017     -1.63990577154437
  C          -0.69713170501133     -0.94907525194399     -1.46891984744392
  O          -1.52694873202437     -0.00518034825933     -0.39301566076272
  Br          3.10014634068159      0.62307194950081     -0.72473935137180
  H           1.46154340599209     -1.02015026157025      0.19865167865964
  H           0.72576707053197      0.32743286861110     -2.47007690783168
  H          -0.72573283590927     -1.89064019573589     -0.92777080352682
  H          -1.35276297226480     -0.93642822176234     -2.33025681727655
  N           0.32328468760715      3.09363413152588     -0.91359355541713
  F          -0.25578484589636     -1.71677472511843      1.82115691642223
  F          -0.68918247782081      0.03588696217938      3.02219161717994
  H          -2.09379649010614     -0.94807121917708      1.99137584126295
