18
Coordinates from ORCA-job NEB_reactant E -38.485881077160
  C           1.73185288657160     -0.08779362164158      0.02809126543033
  C           1.56454793192970     -1.35379940854111     -0.38616558387534
  C           1.69329465788384      1.00123351223091     -0.86086465408371
  H           1.89648081180786      0.14047336845188      1.06994340694579
  C           1.60445681403618     -2.50341480428523      0.60479325664021
  C           4.11496692693042     -3.54882909675103     -2.21623963632132
  C           3.21421528653735     -2.65653409728004     -2.58686813924943
  C           1.74923298235689     -2.79668719237449     -2.29705644808608
  O           1.24059974440845     -1.62428555043497     -1.66867062286358
  Br          5.94841342102259     -3.35543109044601     -2.59869764854836
  H           3.88399128104132     -4.45747660634539     -1.68298805396678
  H           3.49518923169236     -1.75107226914804     -3.10582543141925
  H           1.55008874599368     -3.69913844877387     -1.70891284713018
  H           1.18813410238506     -2.85043758847200     -3.23513485066383
  N           1.67323286091278      1.89999330492858     -1.57169137548266
  F           2.75261539144506     -3.22579979330772      0.50028883262860
  F           1.56178392650517     -2.05162176208764      1.87325771382716
  H           0.75950299653966     -3.19937885572224      0.46504081621841
