18
Coordinates from ORCA-job NEB_product E -38.485369189010
  C           2.79860283773182     -1.17833951954074     -0.70529686864493
  C           1.40417976628580     -1.57200621592963     -0.24565793779659
  C           2.74070711056278      0.06795374893331     -1.44254646191783
  H           3.46784678040919     -1.04695384775900      0.15357753097830
  C           1.36242735062866     -2.09865640513699      1.20878765106277
  C           3.32481151188125     -2.32165657249620     -1.60595661421106
  C           2.52433561109699     -2.48853277974379     -2.84834301025610
  C           1.98082461006463     -3.63861253208125     -3.20262808338386
  O           0.42431301512709     -1.55770101871917     -0.92936195956434
  Br          5.20875841184398     -1.90678940317931     -2.08309306394231
  H           3.37791370261346     -3.24970380988633     -1.03175161326545
  H           2.42080173337194     -1.60179762631211     -3.45860304436432
  H           2.08442494194751     -4.52836795518767     -2.60238795245226
  H           1.40789679711569     -3.73285994517196     -4.10753180967374
  N           2.70688155983713      1.04995445204671     -2.02145102716521
  F           2.10362087057507     -3.23192209754124      1.27619345444341
  F           1.93603663409776     -1.21246422591701      2.04955652721488
  H           0.34141675480923     -2.31734424637763      1.55039428293865
