20
Coordinates from ORCA-job NEB_product E -40.721082055610
  C           3.58716904848320     -1.28858931846576     -0.31414084962356
  C           2.89434403841364     -2.12255035052778      0.77495567278507
  N           2.79624970128958     -0.06077206668507     -0.59031773427231
  H           4.56913764291576     -0.96395694076675      0.05348921183700
  O           2.19569227332012     -1.33970622863293      1.57777758358906
  C           3.78593442007078     -2.14310237121001     -1.58559536697738
  C           2.52423049789509     -2.37997915416385     -2.36149677615828
  C           1.75040857138193     -3.43109996168872     -2.16774942796322
  O           3.01404259070387     -3.30950302749287      0.88011568691212
  F           4.71215610655734     -1.50004782907439     -2.37781358305696
  H           4.24189610446229     -3.09211076422228     -1.27331574639543
  H           2.29520501451833     -1.63136555888392     -3.10530111305544
  H           1.98362703954840     -4.17827801332535     -1.42719746464612
  H           0.84698523047500     -3.57094506168337     -2.73372421360414
  O           3.33320984259351      0.99254507808446     -0.37184274091963
  O           1.67690455856630     -0.21672030225960     -1.00714769345179
  C           1.48693246842084     -1.97053974983605      2.64178493452256
  H           1.17214170688217     -1.17210177448863      3.30791466303653
  H           2.13605289028124     -2.67845256770552      3.15924393761954
  H           0.62008025322060     -2.50022403697161      2.24436101982238
