23
Coordinates from ORCA-job NEB E -57.244946395210
  C          -0.12086438702081      0.92415747966878     -0.53161046892095
  C           0.76987362533332      0.06093812807897     -1.22626574989479
  C           0.36067537472505      2.13586270661192      0.21210958541501
  H          -0.96189589157146      1.19612110262925     -1.16363804080096
  C           2.22644321220648     -0.13773118531409     -0.79338032013791
  C          -1.19932631996077     -0.29944074579036      0.54797874720162
  C          -0.94568256513030     -1.58690224603531      0.03375202967930
  C          -1.07243074203558     -1.78848728512069     -1.34018661724374
  O           0.27216516900957     -0.83623695138403     -1.96866650364720
  C          -0.98443595950645     -0.13946448320503      2.04251122698441
  H          -2.14191586968198      0.16081728301795      0.26997221427740
  H          -0.24357471559175     -2.20743567385565      0.57622416903260
  H          -1.86790999774352     -1.27803932443398     -1.86843167016440
  H          -0.80747285281854     -2.74975999101175     -1.75492283772385
  Cl          1.20171699692864      3.22019985542026     -0.95663164828257
  Cl         -1.03562723511735      3.04675952392649      0.84981078066761
  Cl          1.47984654239749      1.80583730620263      1.55042699327137
  F           2.27866283667099     -0.90954734049774      0.32287172700628
  F           2.89159063012750     -0.81183449950995     -1.75203250300258
  H           2.76729891196874      0.79821899213939     -0.59629393367569
  F          -2.04154717803439     -0.71997285419298      2.67513988796613
  F           0.11319315235474     -0.78551128879786      2.48046106300873
  H          -0.93878273750961      0.90145149145377      2.39080186898417
