23
Coordinates from ORCA-job NEB_reactant E -57.293660389700
  C           1.31786103466279     -0.53042410786865     -0.30082407293968
  C           1.93662394757619     -1.56539459725865      0.28539055463699
  C           1.97283576884613      0.56614878312028     -1.05459365040535
  H           0.24411452998430     -0.44913549438328     -0.24713328208158
  C           3.44520123294068     -1.77148063287257      0.29204064371392
  C          -1.22697960289125     -3.81379719272680      2.93009502516212
  C          -0.41851549943549     -3.79819687546611      1.88498156645352
  C          -0.06288402154729     -2.56242146041811      1.12134143605308
  O           1.34780262673915     -2.55110005000512      0.96723426959535
  C          -1.59805693320697     -5.06164758796314      3.67361213263482
  H          -1.70674028433482     -2.92407165026505      3.31138136840317
  H           0.04755576003113     -4.70555794025516      1.52826592409148
  H          -0.39428715133777     -1.66047778014488      1.64998311852422
  H          -0.53959230679022     -2.59554822217095      0.13077678958535
  Cl          2.78696389515494     -0.04927095164867     -2.53600934849499
  Cl          0.76138565927624      1.75462339183753     -1.56782644281230
  Cl          3.20075380846285      1.42298955213425     -0.07096611279643
  F           3.94935196222041     -1.41976531071918      1.49834675798216
  F           3.73536440562284     -3.07723542875343      0.11978496287187
  H           3.97201624125650     -1.19808301753309     -0.48203329552117
  F          -2.94897350821085     -5.16006606751162      3.78581154558625
  F          -1.18578183806164     -6.18086915925584      3.03897156832365
  H          -1.18521972695784     -5.08341819987175      4.69756854143357
