19
Coordinates from ORCA-job NEB E -48.069159837600
  C           1.06494090554447      0.44887660011061     -0.08435628580570
  C           0.47214225111679      1.49421296141083      0.64904195982464
  C           1.03584950923876      0.53621625473638     -1.59365220917950
  H           2.05219286476364      0.13576866977141      0.25030502788148
  Br          1.22704150345529      1.76693250362939      2.42570634607755
  C          -0.11942911175405     -0.96419250434456      0.51763586304629
  C          -1.41624266550844     -0.47051877411316      0.33859225989314
  C          -1.79033014209753      0.72018450850757      1.01815032805651
  O          -0.73255602120342      1.84921408357680      0.49857738158144
  N           0.21658655686762     -2.18578713117035     -0.21878500348311
  H           0.31872124961615     -1.00714522384472      1.51273154262632
  H          -1.95894463389097     -0.78650425535676     -0.53965243643223
  H          -1.58449504234093      0.76318496367109      2.08655245146129
  H          -2.75012801736368      1.14758475934744      0.75637065995531
  Cl          1.82370701120105     -0.88143036184525     -2.33336109926936
  Cl         -0.56772734486237      0.75228928970907     -2.29295078696497
  Cl          2.02280320451302      1.97947801192044     -2.03574775769997
  O          -0.47006076649163     -2.48627035320003     -1.16069007075952
  O           1.15592868919622     -2.81209400251621      0.20553182919038
