19
Coordinates from ORCA-job NEB_product E -48.114145607950
  C           1.61446675561049     -1.93683052987146      0.50281148297205
  C           1.17236934134567     -0.65479923170634      1.16393478442864
  C           1.39404727975513     -1.85510373607213     -1.01403827300913
  H           2.70120182646569     -2.03731623611431      0.67095509193366
  Br          1.72593502436038     -0.58894742775841      3.04573160426302
  C           0.98272745353512     -3.17349320867688      1.17606056003212
  C          -0.39839313418330     -3.54253416785570      0.72971504951626
  C          -1.47448412516459     -3.26174290234062      1.44082898973188
  O           0.59184858515605      0.26290828258632      0.71352809402659
  N           1.91675327359139     -4.35224800247406      1.00909688997594
  H           0.97754281279037     -2.99545189456555      2.26060730226552
  H          -0.46662070097186     -4.08262578394130     -0.20202613435690
  H          -1.42244526110843     -2.73696167117323      2.38121660727686
  H          -2.45644540552872     -3.53855472843466      1.10245679700687
  Cl         -0.28767264203292     -1.48808078889080     -1.44665911664690
  Cl          2.44137656844870     -0.56550111319850     -1.66925958064713
  Cl          1.86017459829612     -3.39616513151514     -1.78297041139587
  O           1.40466297242739     -5.43013680996642      0.90751248583498
  O           3.09595477720731     -4.11821491803080      1.05029777679153
