19
Coordinates from ORCA-job NEB_reactant E -48.101565672540
  C           1.49178004323660      0.13120479121856     -0.12416737566094
  C           1.04522841877449     -0.63655946739599      0.87591963491833
  C           1.80055186968836     -0.43228919610229     -1.46175119549686
  H           1.63950269478688      1.18716352685783      0.01939940527806
  Br          0.67520858420130      0.18225039366984      2.55433392055605
  C          -0.44353096529327     -5.09811718626247      1.85752510384541
  C           0.31982175791271     -4.14685777601059      1.33707558248071
  C           0.35185669296780     -2.73306571426083      1.80317385168654
  O           0.85612437202471     -1.94143949096894      0.74421709626695
  N          -0.38631214185604     -6.44658120569634      1.35964798816046
  H          -1.14808938068805     -4.96804954591551      2.66495193717720
  H           0.98639740084260     -4.38718247244155      0.51716271770127
  H           1.01517209444504     -2.65785963047259      2.67937970582435
  H          -0.64777675396989     -2.39039897085790      2.10157889202255
  Cl          0.35310715321427     -1.20173361356594     -2.18510269122834
  Cl          2.36218205721834      0.83990381435540     -2.55585724994159
  Cl          3.07332497340964     -1.68707312363093     -1.35354497349077
  O           0.39795071191599     -6.69757183822604      0.47412866887927
  O          -1.14149958283148     -7.23934329429375      1.87512898102134
