28
Coordinates from ORCA-job P E -34.632411846550
  C          -1.49013048099115      0.45572493268632     -2.27960656990795
  C          -0.37761061379794     -1.72439333292219     -1.07316542921645
  C          -1.76485257890323     -1.83464984400597     -1.61979735157251
  C          -2.30070945059987     -0.79571580532076     -2.24037404014691
  C          -0.96994071547811      0.75335930548463     -0.87259903524422
  C          -0.15615274618671     -0.41687300790264     -0.27816674657314
  H          -2.28576591572464     -2.77436525010027     -1.52419453111478
  H          -3.28646773963515     -0.79971428893297     -2.67454845663541
  Cl         -2.46309627888827      1.84263612499759     -2.85901835253243
  H          -0.15600541395828     -2.58054539671493     -0.43782099196860
  H          -0.65756306877937      0.36243299732327     -2.98440608683968
  H           0.31469655170910     -1.74766264871683     -1.91951450465100
  H          -1.83884851823004      0.94669394518797     -0.24076784223120
  H          -0.54648280954775     -0.59801217575152      0.72897372201697
  H          -0.38107558727133      1.66806074108249     -0.90089073076019
  C           1.35045008330377     -0.08445807380485     -0.09911013439204
  C           1.49982874054146      1.02280218645197      0.95212796366221
  C           2.09743268869440     -1.31745314484775      0.42573328328116
  C           2.01112035429919      0.36967326004529     -1.40302904742926
  H           1.07586426199878      0.70484126604514      1.90210636886012
  H           1.00286208774376      1.94004592905790      0.64948395718043
  H           2.55207349371077      1.24961545176699      1.10851007185536
  H           1.60114211140046     -1.72290739036338      1.30470758085527
  H           3.11143640668817     -1.04230170647611      0.70755982515358
  H           2.16192877512991     -2.09660456280274     -0.32833887584446
  H           1.56163792506920      1.28260859199744     -1.78361285665740
  H           1.93832994951264     -0.39583228366914     -2.17170802271626
  H           3.06693848819021      0.56503418020505     -1.22843316643121
