28
Coordinates from ORCA-job R E -34.544121897640
  C          -1.78694967300298     -0.14707313463962     -3.08258797069262
  C          -0.37358813492894     -2.72588104507812     -2.39049496168031
  C          -1.60013352519705     -2.36931819219430     -2.01986522101900
  C          -2.33231997287364     -1.20437925921833     -2.48502375083286
  C          -0.76327105816501      1.61971071653772      0.55221552035490
  C          -0.09453567497603      0.59095483714620      0.06818589925553
  H          -2.13832952710297     -2.98949216834256     -1.31648986475144
  H          -3.39642550274621     -1.20967581940968     -2.29529852171154
  Cl         -2.71286671698940      1.20304102401350     -3.59204572971159
  H           0.09633157810258     -3.60890503448750     -1.99336141691100
  H          -0.73253899595490     -0.04051467241650     -3.27959986696180
  H           0.19701153480232     -2.16680990982730     -3.11264397149412
  H          -1.82682125379294      1.71167708970462      0.40586994363539
  H          -0.62502306197895     -0.17205237645293     -0.48684439165089
  H          -0.29753910036882      2.41272342834407      1.11081270707038
  C           1.38544066696014      0.32873009912109      0.17572238053182
  C           2.10689830202896      1.35039037061579      1.05329686104086
  C           1.57742184562064     -1.07610767102166      0.76121650721880
  C           1.97470730225463      0.36597509122658     -1.24107506555477
  H           1.68730628993227      1.35890327034506      2.05632455680610
  H           2.02485576266266      2.34817441925363      0.62960565471062
  H           3.16247905525804      1.09735356941655      1.12618344729132
  H           1.16143201557215     -1.12811820757709      1.76512676947993
  H           2.63517413006181     -1.32573290011396      0.81170014240451
  H           1.07599343518889     -1.81654496026674      0.14206586826185
  H           1.80526721627505      1.33919165985074     -1.69690131495399
  H           1.51102632132565     -0.39584574048225     -1.86363078895941
  H           3.04613674203203      0.17946551595297     -1.20971342117668
