28
Coordinates from ORCA-job TS E -34.525927791060
  C          -1.81032766812643      0.49159293844845     -1.93609433148306
  C          -0.73734512956673     -1.78180861603430     -0.60041125054459
  C          -2.05860608358733     -1.66695486365845     -0.88806441578433
  C          -2.59248483673170     -0.56655649155308     -1.58759979948682
  C          -1.15423152494017      1.07545773631971      0.14505596912073
  C          -0.36193727987478      0.10921864443640      0.68340983828804
  H          -2.76409903237529     -2.34216691959646     -0.42403789577841
  H          -3.66678880624531     -0.46545957115384     -1.64220805419362
  Cl         -2.52379669088181      1.90576098538713     -2.62736411368678
  H          -0.39916745864392     -2.59059458966335      0.02523532388228
  H          -0.76276825592050      0.40996471661283     -2.16373907645321
  H           0.00715599527499     -1.32446061883326     -1.22122254434995
  H          -2.18509870481725      1.15543643431876      0.44194722416584
  H          -0.78080005221621     -0.53385832136034      1.44335715489543
  H          -0.73233254549959      1.95204825816323     -0.31311780714924
  C           1.15111120667703      0.24059251519225      0.74327887732288
  C           1.43326416906088      1.28219770444158      1.84299967118220
  C           1.82081340553984     -1.07254481066881      1.15900522375137
  C           1.77830841745942      0.73214580350711     -0.56360218565917
  H           1.00873415349030      0.95833128173092      2.79058037492693
  H           0.99435971469651      2.24217578995819      1.58373439943585
  H           2.50527351843725      1.41453826634291      1.97347442758170
  H           1.33636637017508     -1.48935411944829      2.03915306448813
  H           2.86684080335564     -0.89457902452898      1.40068041862376
  H           1.78365064322764     -1.80787523748423      0.36091730111403
  H           1.35274012127984      1.68174664371652     -0.87544785960052
  H           1.64323053765269      0.01052016295602     -1.36611386718662
  H           2.84793501309992      0.87448530245138     -0.42380606742286
