20
Coordinates from ORCA-job NEB E -43.108937931870
  C          -0.01487337947971      0.50269793243422     -0.86765523336054
  C           0.59032810507591      1.29542212521269      0.17877892828319
  N           0.73778782423128      0.13642844599563     -2.02725029506922
  H          -1.03102017769711      0.77774267322313     -1.13988596376096
  N           1.92110672224292      1.43405409364630      0.26851770591706
  C          -0.43056767414410     -1.05558393140551      0.12948888910251
  C          -1.23452527233182     -0.58463228908683      1.18255875126302
  C          -0.65634158758352      0.31972493934634      2.09270075379462
  O          -0.15294891265640      1.66386222089713      1.15462748559952
  N          -1.12104383789912     -1.93299112724138     -0.81957675950025
  H           0.57215705545007     -1.42401205544464      0.33414239525264
  H          -2.29766326990391     -0.53779596053658      0.99548269727884
  H           0.31509348225815      0.06890633552022      2.50558134370459
  H          -1.31326801529203      0.80504465631133      2.80029699859595
  O           0.11213536543535     -0.07017715492104     -3.04294069750560
  O           1.95281758131737      0.02208426726545     -1.92753220813342
  H           2.29939315273311      2.00370120371614      1.00673516293438
  H           2.50382375964846      1.10516052126204     -0.49402526918636
  O          -2.23250609640373     -1.61273894256078     -1.15672858403205
  O          -0.51988482500116     -2.91689795363387     -1.17331610117795
