20
Coordinates from ORCA-job NEB_reactant E -43.152678128550
  C           1.49925994341524     -1.16578955762735     -0.06517730988855
  C           2.28965877156467     -1.27839156317861      1.05474093364151
  N           1.98376156200331     -0.78373948346863     -1.30354010654149
  H           0.44460450371722     -1.37263227169049     -0.06068358668950
  N           3.60316232277118     -1.05918671875263      1.03525731655177
  C           0.65599269551965     -4.09198473412897      1.41186474600077
  C          -0.06934899340498     -3.13030751480148      1.96691882618944
  C           0.45164490859944     -1.83360348704992      2.48802202515776
  O           1.83136364727042     -1.61848280672162      2.27782273364088
  N           0.04370619934600     -5.31776907204857      0.97486188685204
  H           1.72253541068749     -4.06186237472321      1.25128657669337
  H          -1.13573800175271     -3.28320446453829      2.08302559360778
  H           0.33354044480700     -1.82539798831291      3.57827285888377
  H          -0.14067542787282     -1.00259167947775      2.08319546645648
  O           1.18438778444120     -0.70544541984872     -2.21967975928667
  O           3.18695682725704     -0.53505351830544     -1.44084776217416
  H           4.13676917199827     -1.12219242099949      1.88332868881105
  H           3.98812355878250     -0.77888564587004      0.13009358311121
  O          -1.15404353782777     -5.43487732369711      1.10355054748866
  O           0.78613820867766     -6.15270195475878      0.51178674149386
