17
Coordinates from ORCA-job NEB_reactant E -30.970741090070
  C           1.74424323849504     -0.02349235861340     -0.06515580769703
  C           1.54974873694079     -0.91259628741301     -1.06965245095681
  C           1.72300243481739      1.36727313151507     -0.12705265509047
  H           1.93548702363811     -0.42120791757732      0.92168380254975
  N           1.54901636215663     -2.26108265958374     -0.82595406796297
  C           2.94424680597123      1.33596649091097     -4.43138114118871
  C           2.48879590551799      1.23051557963285     -3.19812745630547
  C           1.15066244067919      0.63099823698292     -2.88767482501186
  O           1.27219973002629     -0.68818605230111     -2.37208762923860
  F           4.14757310689015      1.85548378005076     -4.70224987691763
  H           2.42087750770740      1.04080161726894     -5.33044283816162
  H           3.09116018242655      1.56041580619286     -2.36512032895755
  H           0.56714342151280      0.50898914547650     -3.80391124729086
  H           0.60262128142793      1.26641845577587     -2.18564514186770
  N           1.72826740737753      2.51883970135044     -0.10967944200799
  H           1.59037202086055     -2.85142761913285     -1.63983664749277
  H           2.01538239355443     -2.59450905053576     -0.00101224640168
