17
Coordinates from ORCA-job NEB_product E -30.991609913580
  C           2.87885359778422     -0.17870195681086     -1.63802846436262
  C           1.82870547998236     -1.29805036564658     -1.82113100316965
  C           2.69201989707695      0.52247872927289     -0.39508160736070
  H           3.86827113209235     -0.65631636390530     -1.62314058652464
  N           1.43718339912125     -1.87825358864095     -0.67229991823928
  C           2.83310793602392      0.78276417321297     -2.84875201701752
  C           1.68775267437053      1.74485990142267     -2.75040892998165
  C           0.52331435587982      1.53918639728698     -3.33431024121794
  O           1.43939665880005     -1.63822987257404     -2.91004067686390
  F           4.02731361586200      1.47194236600723     -2.89902285936109
  H           2.77525621085625      0.17853594507884     -3.76260402155221
  H           1.88214039069946      2.61764602690065     -2.14264962670350
  H           0.34042272098330      0.66176854534578     -3.93235686662898
  H          -0.29186942943297      2.23274383813201     -3.22468486253040
  N           2.53154007871684      1.06067054901226      0.60124250557817
  H           0.74460997859882     -2.60835982321520     -0.71728428900171
  H           1.71378130258486     -1.52998450087935      0.22995346493761
