18
Coordinates from ORCA-job NEB_reactant E -38.585126240350
  C           0.65290879145704     -0.87048981873851      0.27034957271733
  C           1.82195912737135     -1.07511664853082      0.88118264508983
  H           0.63828611243155     -0.55532647018096     -0.75657832151651
  H          -0.29586552550954     -1.01495409070887      0.75302769749904
  C           3.03101066460526     -0.87330620438981      0.15096917151897
  C          -1.20892982230976     -2.88552935658307      2.81383057979652
  C           0.10086359315924     -2.82316342549945      2.63258262375192
  C           0.93722401320455     -1.63672029774346      3.00894948835209
  O           2.05193128253409     -1.46072585067182      2.16567816253556
  C          -2.07598332626407     -4.04204349942484      2.47349040491892
  H          -1.75628522962356     -2.05646358574089      3.24232950636183
  H           0.64896146066967     -3.65005543276491      2.20346187827765
  H           1.37653290200927     -1.80897442380105      3.99831754898434
  H           0.33060072922000     -0.72239802629562      3.04918475292882
  N           3.98240403489987     -0.70245042754963     -0.46174466578371
  Cl         -2.94059845297533     -4.58737888198383      3.94285702002127
  Cl         -3.29953839908890     -3.51409610785813      1.27560429391554
  Cl         -1.20088195579071     -5.42130745153432      1.79890764063060
