24
Coordinates from ORCA-job NEB E -43.000778335330
  C           0.80722494567009     -0.41584578905703      0.05361186097349
  C          -0.36653394476625     -0.25956580611836      0.97777640523918
  O           1.97947063329662      0.13834357458904      0.61118523065177
  H           0.96306214789066     -1.47835240016061     -0.18048173314284
  C          -1.01247382834090     -1.44573809036119      1.60526386361582
  C           0.43780949781527      0.38198325925911     -1.20801107948109
  C          -0.43641264466428      1.47354661736027     -0.73956666588641
  C          -0.34859733220004      1.97053034508376      0.66721794348775
  O          -0.58894242148902      0.91814043867316      1.56691964031384
  C           1.65326709703822      0.86772620311791     -2.03593831646447
  H          -0.10215760374889     -0.29736143883395     -1.88208606249421
  H          -0.67855745880562      2.23543940019859     -1.47021746903607
  H          -1.12222887842081      2.71539212636878      0.86875590564961
  H           0.62649676874656      2.43459182037753      0.87695238882959
  H           2.18436930373461     -0.28753329303928      1.45018819096257
  C          -2.00315566703500     -2.09662427114879      0.62975900436637
  H          -1.54400257890391     -1.11695044720590      2.49920665349635
  H          -0.26264297468582     -2.19022618124823      1.88992632348315
  H          -2.77595538718499     -1.38712705996286      0.34767080561557
  H          -2.47138098359076     -2.95688930590961      1.09972683637612
  H          -1.49217912847883     -2.42884120480082     -0.27043665087943
  Br          1.02388182260297      1.49780587826620     -3.78514277159093
  Br          2.61674691143011      2.33375107352187     -1.21270949958374
  Br          2.91289170409002     -0.60619544896958     -2.35957080450198
