24
Coordinates from ORCA-job NEB_reactant E -43.051027603940
  C           1.82676449421040     -0.20688526424549     -0.31190964704401
  C           1.73033660550030     -1.05146818785043     -1.33653295555586
  O           2.36413226191370      1.07080135178900     -0.35487436465579
  H           1.45871078391167     -0.53240888094897      0.64975770280345
  C           1.10175718031332     -2.40936482543997     -1.16750423763870
  C           2.95814021563450      1.36946965915380     -5.28367565004902
  C           2.96393654449869      0.32340209063861     -4.47168855769724
  C           2.61226954157645      0.39656073601251     -3.02425266536331
  O           2.11827912249684     -0.86582918883974     -2.63798469155948
  C           3.33300031788935      1.36562892905678     -6.71127291960991
  H           2.67528391563721      2.35098660181128     -4.92126332634293
  H           3.23436726375497     -0.66643998529067     -4.81353887117720
  H           1.87218490357890      1.18275612785727     -2.83348937627627
  H           3.51784568741278      0.64253695751950     -2.45046451295990
  H           2.31007137506271      1.46024567236292      0.52138172867557
  C          -0.34806771076207     -2.40594149649429     -1.65287338233050
  H           1.14367228783606     -2.70871669495243     -0.12067666782088
  H           1.67542753982742     -3.12324424477426     -1.76003802261477
  H          -0.94311516926798     -1.70996928611785     -1.06612066492174
  H          -0.77994397947605     -3.39909968899020     -1.55882789665107
  H          -0.39115685771660     -2.10556535107586     -2.69632237417963
  Br          1.83056336538915      2.05330166063610     -7.79157005611987
  Br          4.86575054843320      2.58600863325800     -6.99267452129701
  Br          3.82618976234508     -0.36516532507561     -7.42578406961396
