22
Coordinates from ORCA-job NEB E -56.099777651200
  C           0.21972345612190     -0.88724984736207      0.54715767568166
  C          -1.15891717916873     -0.70406071873701      0.77995952649858
  C           1.17825657554133     -0.48592494867306      1.64593543177757
  H           0.47980155560196     -1.86693319589007      0.14292959351555
  N          -2.05689875990035     -1.58533504776219      0.06026908657404
  C           0.35645736374033      0.29012144539937     -0.98861502613996
  C          -0.17270669329905      1.48755056799464     -0.50423926396178
  C          -1.53150292513130      1.50735094329331     -0.00733114795330
  O          -1.65153744175722      0.46025127181220      1.09953127512570
  C           1.75201332105439      0.32244870341042     -1.57921303741101
  H          -0.27082048788641     -0.34588294040815     -1.60771113548556
  H           0.50080920522863      2.28396461381605     -0.22898006655807
  H          -2.29113197440409      1.18347253919819     -0.72401297678387
  H          -1.81946489394705      2.43556227219733      0.47694110078632
  Cl          1.05104094336955      1.19594598222877      2.15719688942032
  Cl          0.73372467366577     -1.51396728810742      3.06127245420456
  Cl          2.86608074047461     -0.85901694384691      1.25548505199868
  O          -3.16943837815759     -1.15803169784100     -0.16775424923065
  O          -1.62559422504470     -2.66745625004315     -0.28912511175042
  F           2.59611515843327      1.10660937129393     -0.87951272782202
  F           2.29259644904927     -0.91286592165861     -1.63753158606785
  H           1.72139351641545      0.71344708968542     -2.61265175641845
