22
Coordinates from ORCA-job NEB_reactant E -56.127548082690
  C           1.81074426657324     -0.02634360478729     -0.53217994030838
  C           1.06134490536789      0.37046465054813     -1.56733480968888
  C           2.48186971764807      0.80109937455717      0.49874682810023
  H           1.92471299679287     -1.09725284678273     -0.41491953976942
  N           0.46788045817504     -0.72944111924107     -2.39582253552087
  C           2.66850190916014      2.77767339079001     -4.51152663426515
  C           2.59814063203608      2.22438091254302     -3.31339373889943
  C           1.59235200779834      2.61198813279366     -2.27511756811133
  O           0.66977042936242      1.53937919935439     -2.04802241773666
  C           3.66829286951589      2.37394925050540     -5.55281209604789
  H           2.01739950526047      3.58222577534388     -4.81928569517559
  H           3.27102028238886      1.42200368668572     -3.04066327105591
  H           0.95982378032696      3.43015981506621     -2.62210206972446
  H           2.09423326977499      2.90044373776783     -1.34757325241334
  Cl          1.45474297160127      2.15386433602009      1.04789352792693
  Cl          2.86730968876235     -0.20072225424789      1.91668779439186
  Cl          4.03131093898897      1.46944959435505     -0.13355085621239
  O           0.00193543894652     -0.39739245771023     -3.45185976969333
  O           0.51438179029344     -1.84814474841493     -1.95129228938965
  F           4.37071110129934      3.45393368095345     -5.98295254822076
  F           4.57706475970689      1.49256905567161     -5.07711841636904
  H           3.19135628021997      1.92001243822852     -6.43910070181654
