19
Coordinates from ORCA-job TS E -37.247888463750
  C          -0.97985854009712      0.74936540830071     -1.46278717677024
  C           0.34231193363139     -1.54457062420116     -0.37706399832589
  C          -0.98539338340060     -1.53097699457285     -0.65229986139984
  C          -1.63785900743328     -0.41322891546379     -1.21609336143076
  C          -0.38247098480699      1.21340203391866      0.69747120880713
  C           0.36935544266620      0.18816323251694      1.17483673470755
  H          -1.61564189337783     -2.32455083050013     -0.27649334651432
  H          -2.71758066094671     -0.42710576540550     -1.26537331627996
  Br         -1.92494399595596      2.28007026324014     -2.05072179998904
  H           0.77800442080046     -2.37254241524164      0.15706255122337
  H           0.07306707159689      0.81261369657891     -1.67656874449159
  H           1.03549671567100     -0.93334562279012     -0.92586759236155
  H          -1.41858922073487      1.29613547723850      0.97066636016707
  H          -0.01690039535455     -0.54135171428553      1.86596472955391
  H           0.08959968958129      2.09728086997962      0.30317013346868
  C           1.86006363827274      0.31816180528284      1.17512623683940
  F           2.49921779365123     -0.84141795462580      1.38901319748548
  F           2.34527824656900      0.82026454338214      0.02492112158838
  F           2.28684312966770      1.15363350664805      2.14503692372222
