21
Coordinates from ORCA-job NEB E -32.737984720450
  C           0.30674143295068      0.52897660589362     -0.46612549474667
  C          -1.05271520404274      0.74940945320915     -0.21011499788243
  C           0.72624859896774     -0.82857472244675     -0.97438804524624
  H           0.86311768157294      1.35101021571014     -0.91318402289141
  O          -1.55675967411408      2.02240029122953     -0.17182288857517
  C           0.84150842233690      0.55949987518773      1.44142851953164
  C           0.06917667937239     -0.43684527465417      2.02804709281937
  C          -1.33814338423939     -0.24654709144592      1.99153800125446
  O          -1.74858386098753     -0.14475157152286      0.39200757483812
  Br          2.74406130423325      0.36094428183845      1.44496489315137
  H           0.59094658820041      1.59815636386506      1.62700512980681
  H           0.46073345907539     -1.44173133712123      2.07370436948925
  H          -1.71103535904261      0.71784211766191      2.32565985043454
  H          -1.94881203257151     -1.07350832496429      2.32929130893962
  C           0.49432114817609     -0.92035623239717     -2.48144907493170
  H           0.13875967563191     -1.59773139854894     -0.47126190673369
  H           1.78394146414264     -0.99938961245032     -0.76827831175708
  H          -0.56009039082155     -0.78565404166493     -2.71187618529318
  H           0.80735928947204     -1.89514142260775     -2.84612015067381
  H           1.06627465381949     -0.15823257009448     -3.00695114519307
  H          -0.97705049213245      2.64022439532323     -0.63207451634072
