22
Coordinates from ORCA-job NEB E -47.662493205580
  C           0.27767119186064      0.03022220962018      1.01920489429948
  C          -1.06740342465369      0.44092477720058      1.05704354255098
  C           1.35226934229221      1.07984308490339      1.14046279754373
  H           0.49335157912907     -0.82048704077857      1.66650306494476
  N          -2.01689245005397     -0.53020887597917      1.54622132967846
  C           0.28529203088780     -0.76532811043331     -0.77590947572707
  C          -0.24238553344117      0.28013632746091     -1.52914989782485
  C          -1.56011296664151      0.80412315410935     -1.22954941042632
  O          -1.54002993333582      1.31868859423922      0.20968251616614
  C           1.64420380714441     -1.30419802869597     -1.11727151437065
  H          -0.40024987617306     -1.55161713800691     -0.47154860845337
  H           0.42346903811465      0.87838075358263     -2.13180220192073
  H          -2.36298339852594      0.06243978365740     -1.21757610781038
  H          -1.84273514991111      1.67597291537035     -1.81196780048282
  Cl          1.28499854821923      2.36540854507700     -0.06257310909904
  Cl          1.12279673964073      1.84436043511774      2.76035163887472
  Cl          2.98207677877524      0.37838226384044      1.14536376207426
  O          -1.60236159031039     -1.39885288787852      2.29469030207027
  O          -3.16336448553317     -0.42194079008015      1.16065869038801
  H           2.06689087959343     -1.86495350177767     -0.28937737416142
  H           2.32983266253787     -0.51327510190202     -1.40459387718877
  H           1.53566621038455     -1.98802136864692     -1.95886316112539
