22
Coordinates from ORCA-job NEB_product E -47.691708786960
  C           1.95062204385527     -1.46639226430786     -1.58931969489172
  C           0.58053707254520     -2.03883182437008     -1.36630962456833
  C           1.89681425651684      0.02876449244186     -1.27124892809335
  H           2.65437889453803     -1.93445897172724     -0.89099525412243
  N           0.57286386464499     -3.23169890037951     -0.35912872470679
  C           2.37970319936538     -1.80045629704794     -3.04413540831960
  C           3.76325429143070     -1.29840504877709     -3.32939648301145
  C           4.05222244687723     -0.46333244157438     -4.30919528451550
  O          -0.45654776339669     -1.75242856354051     -1.85285491141294
  C           2.33866646694300     -3.31949437478120     -3.23817592720711
  H           1.66995885074702     -1.32989757710341     -3.72985433034574
  H           4.54168637376959     -1.70607750087599     -2.69939316420083
  H           3.28861195064022     -0.05176543355212     -4.94825794552539
  H           5.06260602036445     -0.15314083107191     -4.51008969016582
  Cl          1.00751622523299      0.94940034179900     -2.48882886664108
  Cl          1.05626499982071      0.22200521700853      0.30935679960501
  Cl          3.52364331043845      0.70795144117208     -1.10368950496334
  O          -0.50413707902208     -3.71581229476683     -0.15836406803518
  O           1.63043048588681     -3.56376775686509      0.11583282675796
  H           1.32045240636353     -3.69775878457596     -3.16999609942480
  H           2.95050624621236     -3.82099108217249     -2.49141079893132
  H           2.72614543622599     -3.56901154493187     -4.22254491728024
