22
Coordinates from ORCA-job NEB_reactant E -47.683499990720
  C           1.85329778603720     -0.49642024320400     -0.24115514426595
  C           1.07057343900416     -1.23498170220654     -1.03954333391193
  C           2.55380798581410      0.77404914476453     -0.53829355192311
  H           1.96489700067224     -0.85974170047110      0.77304977476202
  N           0.43341830689029     -2.42607205355519     -0.38652482236217
  C           2.55000937370449     -2.93075735676663     -4.44519235684246
  C           2.58528808373120     -2.01099297989536     -3.49445019526895
  C           1.58784657822116     -0.90209914034858     -3.37301303062765
  O           0.67066814631551     -1.16218246159941     -2.29232596713828
  C           3.51982325345943     -4.05170886916889     -4.57450087416162
  H           1.77888067207265     -2.88914445266120     -5.20351909538834
  H           3.34230921152761     -2.04466430393641     -2.72208382487013
  H           0.93910152087715     -0.85803304304398     -4.24883042022465
  H           2.08296157514578      0.06130912933168     -3.23195218788804
  Cl          1.54006530531266      1.89757640597920     -1.48689369098076
  Cl          2.98537597108019      1.58971367574464      0.98368576563827
  Cl          4.08272646326895      0.47960591463873     -1.43996439625932
  O          -0.13343196995160     -3.18993851626592     -1.11902040848321
  O           0.54107578238790     -2.53066921386472      0.81040609649027
  H           4.26977510081215     -4.01767162889790     -3.78886778691931
  H           4.01675515308422     -4.00619901621183     -5.54285836053348
  H           2.99237526053254     -5.00327758836112     -4.52155218884118
