24
Coordinates from ORCA-job NEB E -51.492177419680
  C          -0.41960863400971      0.14328927630952      2.04434472499754
  C          -1.14436611935542     -0.55938417655916      1.17120128022515
  C          -0.24994537244554      1.62846727881107      2.05308634779870
  H           0.12699091166056     -0.38485813053650      2.80799363346902
  O          -1.23360802678116     -1.91194168188880      1.33276736393267
  C           0.89428946326940      0.27327341487718     -1.56997742295053
  C          -0.26454020282304      0.84028862041529     -1.27520007069213
  C          -1.53257857340502      0.05567596806570     -1.12365351678886
  O          -1.94935592479182      0.01697381498165      0.23947927541635
  C           2.20589790349681      0.95062867293624     -1.66139157254596
  H           0.95878762588960     -0.79179302114013     -1.76718640199027
  H          -0.34405427602775      1.89643495635275     -1.05905412029283
  H          -1.42089152728669     -0.95403026469651     -1.53610462139022
  H          -2.35337006988620      0.56579147154260     -1.63381836383030
  F           0.91201646134951      1.96413266464736      1.40980209049744
  F          -1.22141128441781      2.29895647666053      1.40086404280375
  H          -0.17926274593285      2.03809778623301      3.07243403272648
  C          -0.48325615917987     -2.74516799080194      0.46057932843453
  H           0.53924675749256     -2.37327885515237      0.34730093739415
  H          -0.95829128851018     -2.84557725347195     -0.51974707247681
  H          -0.45824534566729     -3.72150882667281      0.94137261849162
  Br          3.05164066888244      0.49106932295634     -3.38374238838144
  Br          2.15671886491615      2.87683841920295     -1.52335551835126
  Br          3.36719689356331      0.24762205692799     -0.22799460649680
