24
Coordinates from ORCA-job NEB_reactant E -51.507159003400
  C           2.02776978588303      0.08101034595361     -0.16409375309340
  C           1.87924494815049     -1.03390858998448     -0.90565856942422
  C           1.93122562161634      1.51427635980881     -0.52572599827404
  H           2.21255110359299     -0.11099862107175      0.87899087800132
  O           1.96073076034941     -2.19448974245938     -0.22536081563730
  C           3.64393783063155      1.13159917937714     -4.16545502753987
  C           3.24623432322745      0.12687505728531     -3.40173220058907
  C           1.80658237592631     -0.22704227718005     -3.19073149912574
  O           1.63852005538626     -1.23449182438096     -2.21426044625036
  C           5.04242340842127      1.53444951325261     -4.40700860265350
  H           2.92266930547776      1.75880422998391     -4.67530462606794
  H           3.95544723018984     -0.50040202037334     -2.87827505403832
  H           1.40282733153579     -0.68147968702826     -4.10330615131596
  H           1.20692283039961      0.65943853137198     -2.96976127396852
  F           2.92093994998583      1.94070032285975     -1.37273223062080
  F           0.76984453935748      1.83562072868416     -1.17649105110761
  H           1.98418516697722      2.15445478843127      0.36491120902861
  C           1.81897102102286     -3.40949294617041     -0.94167034779819
  H           1.92720005386423     -4.19254564009299     -0.19467191968086
  H           2.59372104145215     -3.51415147665722     -1.70463024071243
  H           0.83691152441281     -3.47711811042076     -1.41432312668304
  Br          5.43305378498650      1.39578354991903     -6.34110869085217
  Br          5.29205389174199      3.41475729637835     -3.88378611729742
  Br          6.36683211541079      0.48005103251365     -3.47031434429914
