20
Coordinates from ORCA-job NEB E -50.423211156490
  C           0.45885753364484     -0.83566442351475      0.31943336257707
  C          -0.87687284747426     -0.65100088814636     -0.08494439069149
  C           0.77607034287084     -0.80773666414658      1.79465735544069
  H           0.99496058004623     -1.65465894855320     -0.15515971408903
  C          -1.32568347663607     -1.34621117488231     -1.37148458439977
  C           1.33543478085420      0.81862508076053     -0.28784234285692
  C           0.31931687712343      1.66761645168835     -0.73330982440179
  C          -0.76738604169319      1.89070784122543      0.13652969665573
  O          -1.54479394227065      0.38521389440898      0.25866954504459
  F           2.22280263044480      0.39528416561489     -1.19852258592712
  H           1.83994667886765      1.02262838254823      0.65316886351824
  H           0.14124326788400      1.68429102622255     -1.80114766473832
  H          -1.58808020501450      2.48881261247690     -0.23617740248245
  H          -0.54829984623167      2.06200701012877      1.18375567718424
  F           2.09432619048056     -0.88174058585882      2.02705851692041
  F           0.34093648990914      0.27660843913370      2.44824141340812
  F           0.22597318375100     -1.86501175140332      2.40939948852651
  F          -0.86203882183516     -0.66122950853826     -2.45197983964672
  F          -0.81589060531771     -2.59059267409876     -1.46113221917607
  H          -2.42082276940347     -1.39794828506596     -1.44921335086591
