19
Coordinates from ORCA-job P E -25.139099857600
  C          -1.30884272427614      0.38568701681946     -2.36016504550971
  C          -0.05110072186051     -1.64961894384137     -0.97695972200185
  C          -1.43874869556829     -1.87900827906891     -1.49238422783756
  C          -2.02843000616880     -0.91844655319929     -2.18556207258062
  C          -0.78638314152713      0.80932248587910     -0.97754265957657
  C           0.07697876029427     -0.26928641427748     -0.31841213638701
  H          -1.90245946649470     -2.83508145622704     -1.30782747594405
  H          -3.01919216433839     -1.02342929304326     -2.59868472025439
  C          -2.20024402840387      1.46501495908219     -2.96261584306689
  H           0.24860533274914     -2.42579090986507     -0.27305812286811
  H          -0.44411282762197      0.22967832079285     -3.01781171516140
  H           0.63948568859572     -1.68646727392355     -1.82597256626489
  H          -1.64950339854267      1.00373833235381     -0.33641674994250
  H          -0.16294792198390     -0.33884037117925      0.74475743000316
  H          -0.22166933968748      1.73809459033345     -1.06245551994019
  Cl          1.81053550791048      0.21242123276690     -0.36000332643174
  H          -2.55885920904219      1.15639231299688     -3.94183216389178
  H          -1.65105664433839      2.39690626807008     -3.07632091364932
  H          -3.06033499969519      1.64887397553048     -2.32184244869459
