19
Coordinates from ORCA-job R E -25.046943201880
  C          -1.37376315483701      0.04801791736381     -2.99506729993233
  C          -0.18383912231526     -2.42413410676696     -1.69782773556353
  C          -1.41465696863183     -1.95372988042199     -1.52436565285907
  C          -1.98763857229933     -0.77159600434868     -2.14261701896386
  C          -0.86620410173669      1.18988916958218      0.45935313009897
  C           0.23192356047057      0.49520471191700      0.24279440890501
  H          -2.08243779263246     -2.47840069726398     -0.85118749729114
  H          -3.00906100706128     -0.55243522269089     -1.85539711141716
  C          -1.99357769007520      1.27311506986242     -3.56927365670390
  H           0.15851509364363     -3.30814325467400     -1.18729674998184
  H          -0.35343318832785     -0.14026962532098     -3.29585735916532
  H           0.52803473254832     -1.95395977456256     -2.35432709250669
  H          -1.57053958367826      0.87893550406663      1.21150655515991
  H           0.49667315339616     -0.40029424951999      0.78260096018401
  H          -1.10268089247671      2.07985980908580     -0.09725675460304
  Cl          1.39060489648933      0.93745839203008     -0.94330559059783
  H          -2.00982488261079      1.22589444460350     -4.65845696544458
  H          -1.39772750130357      2.14625568485196     -3.29751985399331
  H          -3.00914697856177      1.41181211220666     -3.20715871532431
