19
Coordinates from ORCA-job TS E -25.031621157070
  C          -0.39979461709942      0.36837788960056     -0.95730954391059
  C           0.98203023035801     -1.82677700787049      0.28589293853844
  C          -0.36049743407902     -1.82331900331205      0.10254797134734
  C          -1.03752640543958     -0.76005579452513     -0.53036488913444
  C           0.34219715881552      1.04314703843112      1.02596538225994
  C           1.17258081129555      0.12123105416336      1.57348285893660
  H          -0.96654606050400     -2.56016163085165      0.61328166743886
  H          -2.11861301573973     -0.75606165345364     -0.47733003595775
  C          -1.15868737911387      1.52592299967377     -1.52642448532785
  H           1.45063019011704     -2.59156850985430      0.88370698658221
  H           0.63681800124887      0.31541718459175     -1.25314135427987
  H           1.64152551552448     -1.28758637845535     -0.36819089732912
  H          -0.66304855960495      1.12482787937769      1.39739192304864
  H           0.89380427700639     -0.53909728921195      2.37504805026331
  H           0.74881889375356      1.90129746635584      0.52283126384837
  Cl          2.89184609555518      0.28787792785642      1.38949330595428
  H          -1.28874175446843      1.38412887267342     -2.60054042762223
  H          -0.62269603735348      2.46117538423506     -1.38226375467178
  H          -2.14409991027212      1.61122357057557     -1.07407695998434
