19
Coordinates from ORCA-job NEB_product E -34.556217066640
  C           2.97885292122063      1.82350191742438      0.26604969654813
  C           1.93174230549929      1.90405351915681     -0.83045246853485
  Cl          2.86501155536857      0.15926544257849      0.94382169502177
  H           3.97501509316246      1.90765917977061     -0.18360892328132
  C           1.89798700497124      0.70841274424551     -1.65812868001696
  C           2.80370956067393      2.95516317883646      1.31122557777321
  C           1.71800303606337      2.61495216745259      2.29610335784387
  C           0.53910041676584      3.20660742164954      2.29557805343291
  O           1.20473857132698      2.84065226686551     -1.02015983426238
  O           4.03498645789477      3.34156485316120      1.87161440517840
  H           2.49668533699787      3.83889997865726      0.73539605474529
  H           1.94721654744873      1.83233646262529      3.00421739534214
  H           0.29203330419189      3.98055270668729      1.58820489700009
  H          -0.22915524771962      2.93313414522312      2.99845291998570
  N           1.87754685681379     -0.20600128498250     -2.34530726015115
  C           4.60587663343740      2.49092248199568      2.84605024281286
  H           4.04316954305243      2.51730515708130      3.78376390010382
  H           5.60443172528081      2.88687905892912      3.02235722262566
  H           4.68494837754960      1.45853860264236      2.49662174783281
