16
Coordinates from ORCA-job NEB E -29.811056493510
  C           1.04258387420251     -0.50302286482863     -0.73352209801318
  C           0.42998739326468      0.76190258831525     -0.82533917162268
  Cl          0.53366467572690     -1.72177246760191     -1.87292969728890
  H           2.10893682530949     -0.55414357357700     -0.54410551059955
  N           1.07439897388361      1.84616596627471     -0.25321582020303
  C           0.16864973306742     -1.06757143766686      0.93986552905606
  C          -1.18595156301083     -0.99709206233728      0.62848371481139
  C          -1.69286947635286      0.28904745387781      0.30750879198752
  O          -0.84406510450997      0.84793180674241     -1.00702711806684
  Br          0.92650125192290     -2.77315928207203      1.33552538831755
  H           0.61280854682847     -0.30696402768865      1.57277052192523
  H          -1.66547788405713     -1.86622713863421      0.20466411512440
  H          -1.45893942054224      1.08810947872342      1.00619456529859
  H          -2.71033799770829      0.33048156498421     -0.05839551800984
  H           2.07394177960109      1.90278143766221     -0.35387120417612
  H           0.58616839237424      2.72353255782657     -0.34660648854059
