16
Coordinates from ORCA-job NEB_reactant E -29.834886387600
  C           1.98651851185719     -0.04976208912909      0.08934951857645
  C           1.44715932715765      0.26457313000625      1.27216435110560
  Cl          2.35230047531084     -1.68046402445927     -0.33203776850355
  H           2.22636254993974      0.68226288380635     -0.65947996452637
  N           1.01484567197625      1.55484900573784      1.58297668054980
  C          -0.42101575316211     -2.28472458509640      4.77415101870438
  C          -0.31335427019207     -1.85193103675975      3.53136362382630
  C           0.23729276284339     -0.50641136205796      3.17531965133250
  O           1.26066224483799     -0.69758225997057      2.21199250579175
  Br         -1.14257541111619     -3.97312143728347      5.20628528628549
  H          -0.13210685108315     -1.71330118105451      5.64236823777484
  H          -0.60189071061779     -2.46902619086190      2.69313942460631
  H           0.64218423219311     -0.00881563526032      4.06779770727937
  H          -0.56126082041194      0.11756528132660      2.75281535598989
  H           1.27345290352589      1.86254029874242      2.51160228809639
  H           1.27242513694121      2.23234920231378      0.88109208311086
