67
Coordinates from ORCA-job A2R E -96.921453958260
  Ru         -0.44795402477370      2.18972271101899     -0.06496601291913
  H          -0.42474422038335      3.70685663804792      0.24539715025147
  N           0.87366358534024      1.97506813535543      1.53837793991799
  C           0.44994223867584      2.17367758696629      2.79960935788257
  C           2.16399263618531      1.65033922914409      1.33926819537457
  C           1.29717506648165      2.02468829029263      3.88798706128809
  C           3.05951637262135      1.49833298424708      2.38792993788908
  C           2.62220838756199      1.67699779710356      3.68734746588848
  H           0.91458877596051      2.19003607114600      4.88356940025064
  H           4.08175943153018      1.23082808705690      2.17474512625735
  H           3.29615992246180      1.55631468519980      4.52048736765840
  P          -2.02237003292928      2.02154875082805      1.60306420463827
  C          -3.50418413528612      3.20464896977064      1.70098199680049
  C          -2.54965218247102      0.29319634129251      2.20799104132530
  P           1.46680942481373      2.35215206699394     -1.16382642504711
  Br          2.02856670377561      1.51888809273412     -3.11826872254377
  Br          2.61215139596805      4.26895690387523     -1.30185711623644
  C          -0.96471922469130      2.62025983671015      3.00167440390840
  H          -0.98196210770326      3.71463404590752      2.91591535523952
  H          -1.33688024006215      2.34065872320002      3.99077680844152
  C           2.62045868452920      1.42145472586488     -0.06572883772926
  H           3.67538672325912      1.68572854364880     -0.20198001218908
  H           2.49982334606306      0.34946696809963     -0.29254391713579
  C          -1.60710487601990      2.37884721998164     -1.48979599347984
  O          -2.31896607137216      2.47368310796172     -2.39209406459427
  H          -0.39562743081582      0.64733365330231     -0.29868024885281
  C          -3.94915274128489      3.56065832488191      3.12051272096882
  C          -3.09743238111139      4.50087561375158      0.99640938302707
  C          -4.65784454963757      2.59204797869123      0.90511009071826
  H          -3.17744365082102      4.11385341740100      3.65077445455597
  H          -4.82709185779393      4.20293028501867      3.05583656534668
  H          -4.21998322409096      2.69136503871259      3.70815459108182
  H          -2.85343199710398      4.31128671579561     -0.04736170297780
  H          -3.92296530862889      5.21069006362222      1.03435252460939
  H          -2.23362624073797      4.96591587443739      1.46710514187836
  H          -4.28829052947441      2.20247988802832     -0.04498301545970
  H          -5.15035108384814      1.79294212463432      1.45324921746701
  H          -5.40454558089495      3.35542804031031      0.68950714508912
  C          -1.25541810112170     -0.44286223703176      2.57037027448733
  C          -3.47627542302585      0.25037903442354      3.42110172980614
  C          -3.19649193963468     -0.43185675190435      1.02656971662576
  H          -0.79757257813898     -0.04210158047108      3.47384025299444
  H          -1.47597935538775     -1.49522699401792      2.74945925045453
  H          -0.53904808774723     -0.38338386726679      1.75105990895680
  H          -4.46666977826581      0.63039289330126      3.18831966149033
  H          -3.59148707686813     -0.78725786015815      3.73551537496311
  H          -3.06617230929739      0.80454047539092      4.26335109397790
  H          -4.19840301208695     -0.06574667687782      0.82486454811990
  H          -2.59026124049060     -0.29646360209425      0.13056004761499
  H          -3.26662338004752     -1.49855173389345      1.23613593561796
  C           1.56823363322269     -2.33548208435646      0.40342401932291
  O           2.55560147469813     -1.62526370017300      0.42367282939684
  C           0.57606840938233     -2.24275445267289     -0.68748136681799
  C          -0.75478687958638     -2.62597390648617     -0.52640406240709
  C          -1.65747004641857     -2.44341234313941     -1.55606960295815
  C          -1.24581579296677     -1.89471434650071     -2.76054713123633
  C           0.07934074634980     -1.53467633507807     -2.94080037068319
  C           0.98119193335368     -1.70263344384386     -1.90888827245452
  C           1.30496164458650     -3.33943385492734      1.49731048706251
  H          -1.09404585341747     -3.03594562989882      0.41254425131529
  H          -2.69194640920627     -2.72256227052944     -1.41720517425374
  H          -1.95962046648859     -1.74504514255715     -3.55667918708510
  H           0.40989977951902     -1.10873098822232     -3.87598955513016
  H           2.01841197616463     -1.42905013828961     -2.04123835173719
  H           2.20850491806247     -3.47581001557984      2.08680976995525
  H           0.98667624772081     -4.29017593380054      1.07758978473595
  H           0.51941796384514     -2.96509004437951      2.15155555927591
