67
Coordinates from ORCA-job A2S E -96.921203516230
  Ru         -0.40635356364572      1.96658964167286      0.07753506232035
  H          -0.52080485818944      3.50922089874199     -0.01374324481257
  N           0.93040045568311      2.30658975251220      1.64691284526976
  C           0.49596424184398      2.82394794589426      2.80939727876305
  C           2.24586403543539      2.05898333632161      1.50569058424372
  C           1.36251663244178      3.09494889210588      3.85882240757149
  C           3.16046779283191      2.32362108462004      2.51492185031147
  C           2.71646448572121      2.84495746531448      3.71657337764414
  H           0.97173751347905      3.50960544178525      4.77533252283358
  H           4.20545995353339      2.11348798892142      2.35149266808263
  H           3.40658101855942      3.05549650757979      4.51803509722002
  P          -1.94675895841694      2.09193150866033      1.78092288894965
  C          -3.54945959175975      3.09348261287876      1.60669559715416
  C          -2.26886029261695      0.54446425912063      2.84368804195495
  P           1.48932028660864      1.97813090345183     -1.06977794629067
  Br          2.08908953039597      0.66709756226070     -2.72573794704598
  Br          2.50672021832725      3.85127407045531     -1.75334241035091
  C          -0.95805295851033      3.15763746766571      2.92943658808139
  H          -1.09693863393277      4.17939948291181      2.55283158504590
  H          -1.29315154494151      3.11907329695122      3.96930833768659
  C           2.70390812128537      1.45657116323885      0.21788305895667
  H           3.74291879836355      1.71370017516039     -0.01563971897837
  H           2.61872427539374      0.35997170741414      0.29510562169378
  C          -1.58192408019960      1.69928463141440     -1.32055797608315
  O          -2.30378549481942      1.51822793410992     -2.20226654083221
  H          -0.20967902575985      0.42639437664595      0.24279809133715
  C          -4.03105784452744      3.76490537616597      2.89385696753650
  C          -3.28883171347950      4.19009491143047      0.57149930946830
  C          -4.62798002279168      2.16977333776130      1.03810416161266
  H          -3.32370216913166      4.51582099808385      3.23812145463336
  H          -4.97318310645444      4.27184941720903      2.68668453790315
  H          -4.20675355657125      3.05853657570124      3.69675346077949
  H          -3.02342259544199      3.75609934420936     -0.39083639271609
  H          -4.18834271977640      4.79087772512332      0.44241251032675
  H          -2.48273353581549      4.85418136907752      0.87676266542155
  H          -4.21797138517799      1.58278339624130      0.21442606607408
  H          -5.02545888191088      1.49732229901155      1.79405121312640
  H          -5.45670557529905      2.76188145172286      0.65150862694001
  C          -0.89725188757736      0.07804918507250      3.34285000915120
  C          -3.17829768725495      0.72993462128687      4.05609583842117
  C          -2.83652731735906     -0.53884592618578      1.92544807159903
  H          -0.48691613221856      0.75294357865999      4.09298921624067
  H          -0.98777967540043     -0.90961748596053      3.79330775610433
  H          -0.19319619687004     -0.00618358601211      2.51557419953335
  H          -4.20770562202622      0.91912830310867      3.76562333094675
  H          -3.16744148589296     -0.19015602678026      4.64058426901006
  H          -2.83245422919592      1.53423432167069      4.70275882915158
  H          -3.87476859027114     -0.35179045295703      1.66902366690049
  H          -2.25460566135570     -0.58582820693298      1.00489056245817
  H          -2.77672472567247     -1.50997360116904      2.41453005028300
  C           1.27713058858347     -2.26132031981153      0.09119962706974
  O           2.24222180343240     -1.59255880940944      0.40796807795722
  C           0.39286487770548     -2.85664378792268      1.12390122181822
  C          -0.87834398110961     -3.35046466658953      0.83850191398118
  C          -1.64607766582012     -3.91037345187835      1.84307298204946
  C          -1.15750335156567     -3.99037880947970      3.13779027839337
  C           0.10145034744847     -3.49204799293871      3.43316850376304
  C           0.86790896578057     -2.92517212747042      2.43374127329269
  C           0.93615217235364     -2.53392080647426     -1.34525846734006
  H          -1.28011094059833     -3.28430278584303     -0.16020982092393
  H          -2.63149319396731     -4.29008440178573      1.61518356413909
  H          -1.75942782562479     -4.43720339295920      3.91594821252363
  H           0.48407587728035     -3.54854334586665      4.44195383997686
  H           1.85228784930268     -2.53387671358887      2.64604331335556
  H           1.78208091258245     -2.28344362146325     -1.98109220717719
  H           0.09746750742703     -1.89957808281778     -1.63286013035508
  H           0.65366001715037     -3.57289791704936     -1.49099028415641
