67
Coordinates from ORCA-job A3S E -96.894604256390
  Ru          1.97809390754971      3.47759875686585      0.14704696591401
  H           3.33072844843538      4.11491612210309     -0.07001036224421
  N           2.84830971939013      2.47423255603043      1.76669031939755
  C           2.99607540786126      3.06988474194441      2.96247739475877
  C           3.23853965778228      1.16574529234191      1.61983221094649
  C           3.33707630590518      2.37626103726257      4.10130046570360
  C           3.56447631761840      0.40582604648450      2.77918967776607
  C           3.58485606778535      0.99800626324187      4.00422880254067
  H           3.43377439252145      2.88937855901597      5.04444056838200
  H           3.80115761139200     -0.63869777316183      2.65048899734586
  H           3.82333833639646      0.43048656965211      4.89143129998155
  P           1.64766155497938      5.13164591231278      1.74002394257640
  C           2.19089774591019      6.90719497084018      1.37012207772304
  C           0.02866486346118      5.13835226988491      2.73997385673179
  P           2.88265044372011      1.66421957870453     -0.95139631325812
  Br          2.11424357108852      0.31669791353214     -2.54338566883963
  Br          4.78951198640377      2.20788438047102     -2.06424981177959
  C           2.87324379364026      4.56949691031803      2.99339399244916
  H           3.84074033155061      4.97207998717092      2.66720476295334
  H           2.66254991668140      4.94307513757801      3.99803317474782
  C           3.33574547769151      0.61236127975947      0.34907261112547
  H           3.67989608394564     -0.39748619783960      0.19051338101979
  H          -0.01526636255207     -0.02660256205661     -0.34755880889236
  C           1.27111171483342      4.36835240452028     -1.30598437883812
  O           0.86412403335005      4.94173374446000     -2.22011712923541
  H           0.31803116832616      2.67973328498208      0.45649042613977
  C           2.65881217747877      7.68848385684635      2.59895235499085
  C           3.36143110579632      6.81354260388720      0.38783332332736
  C           1.04603851325578      7.63785015914869      0.66780918527403
  H           3.53074900964418      7.22572521886358      3.05470999738456
  H           2.94520961909876      8.69133180625447      2.28419612854984
  H           1.88406817702484      7.78847953426788      3.35068413378536
  H           3.04217281809296      6.36584295570217     -0.55282581585831
  H           3.74511394724695      7.81097959707831      0.17968980852471
  H           4.17919154364689      6.21675478853690      0.78927433354622
  H           0.63006237054334      7.01285516521001     -0.12240912225485
  H           0.25478447509274      7.91295104714746      1.36040748820955
  H           1.41988019824502      8.55271257493817      0.21082726587482
  C          -0.02116101414929      3.76897880237546      3.42810317809178
  C          -0.11321038282865      6.21027039590769      3.81673751400047
  C          -1.12796948263058      5.25500167254893      1.74360678378826
  H           0.61298749803073      3.74741521747084      4.31180918930418
  H          -1.03873144947649      3.53832904903923      3.74141196722529
  H           0.30495190678655      2.96915926217853      2.76210537526564
  H          -0.21675432894747      7.20435207243021      3.39118461186657
  H          -1.01436082165805      6.00410565345671      4.39448456975222
  H           0.72932861251530      6.20130392885912      4.50509910888440
  H          -1.25357767796150      6.27813093887368      1.40050280656001
  H          -0.95018179531091      4.62755836342954      0.86836571659729
  H          -2.06032660834191      4.93731941987245      2.20866321984805
  C          -0.38260670262765      1.83424658097087      0.15500628970282
  O           0.48490849094328      0.73199376079887     -0.01561126071492
  C          -1.35324015508732      1.57170146780899      1.28916867483194
  C          -2.61505518499489      2.15035210808063      1.34136006933652
  C          -3.46157985814328      1.88017864365896      2.40268368066117
  C          -3.06139131893196      1.03273688631266      3.42137792343687
  C          -1.80499376719329      0.45302725433076      3.37647708717903
  C          -0.95726747875193      0.72252908593662      2.31872334089775
  C          -1.07047502658515      2.18471985870493     -1.16515601048222
  H          -2.94907583056280      2.81194711806099      0.55795508564714
  H          -4.44103320062781      2.33451834763625      2.43066822326373
  H          -3.72585365565369      0.82501184387447      4.24658031030504
  H          -1.48184966113136     -0.20841867802573      4.16613108846757
  H           0.02702787648329      0.27529968017949      2.28794966198606
  H          -0.34011179888078      2.16907482342757     -1.97482117856578
  H          -1.52338930527727      3.17222748657827     -1.13544443299517
  H          -1.84088432983939      1.44656246092289     -1.38612413061164
