67
Coordinates from ORCA-job TSA2S_3S E -96.857603000020
  Ru          0.31635137560231      1.04397645171183     -1.51746278802447
  H           0.25393610946544      2.57166798192082     -1.70424912966287
  N           1.59417130180039      1.20869620168873      0.11058403352998
  C           1.15141995450073      1.59659613883379      1.31100898083925
  C           2.85309461448525      0.68629774748246     -0.01118327456609
  C           1.91558520723395      1.46638461040496      2.45652005599900
  C           3.64491710574659      0.48376560646599      1.14466354881325
  C           3.18060141051212      0.87949218176133      2.36768782728179
  H           1.53196482193988      1.80915062549748      3.40437185385932
  H           4.62161752312158      0.03907986545738      1.02849195219739
  H           3.78235571452227      0.74948816327311      3.25584659102064
  P          -1.32092735123784      1.37130607673947      0.13162420740756
  C          -2.74518108022765      2.61767070971004     -0.06983942932430
  C          -1.93593423519100     -0.14597500367274      1.10365289962939
  P           2.32688520152456      1.03268076623074     -2.54091531331622
  Br          2.90104254563008     -0.09074425380539     -4.36099781343954
  Br          3.31519804682957      2.99348466895414     -3.20760954944308
  C          -0.21720208717570      2.21468890908995      1.35821852796593
  H          -0.13200861114733      3.25103024081708      1.00422270636511
  H          -0.62092775238072      2.21367133757190      2.37430550364905
  C           3.31235831562175      0.33946000743562     -1.29174681172396
  H           4.31996908592116     -0.02119666126321     -1.44922654168612
  H           3.56254499144594     -2.17679014306874     -3.17126386727794
  C          -0.57396945565814      0.52753825700527     -3.08034893704624
  O          -0.63312811455105     -0.07928858882054     -4.05370611598374
  H           0.42481775339183     -0.50029191796853     -1.24069525447168
  C          -3.23514192206425      3.26022051896153      1.22971797935946
  C          -2.24303376190953      3.73984936035436     -0.98197125955012
  C          -3.89338676017156      1.91941843211364     -0.79853037067463
  H          -2.41070084771131      3.64492337352311      1.82430932694688
  H          -3.87524190844294      4.10374503172682      0.97567689824289
  H          -3.81705584679774      2.57941875232219      1.84019640240350
  H          -1.84484978092414      3.33444125420101     -1.91071881612970
  H          -3.06820046523546      4.40703987895842     -1.22863828086078
  H          -1.46242863596552      4.32980552095822     -0.50440410004139
  H          -3.52898573253081      1.49349338383873     -1.73384559322367
  H          -4.34202932498319      1.12977279863342     -0.20263248078388
  H          -4.67163628862885      2.64208520142439     -1.03754119848800
  C          -0.73157268705695     -0.76533086398048      1.81720330414668
  C          -3.00542324144448      0.13210652088939      2.15843802623640
  C          -2.45017619464106     -1.15663887056399      0.07308598346645
  H          -0.44205374830554     -0.19741533817157      2.69896959798615
  H          -0.98906637779493     -1.77458768608865      2.13665814738428
  H           0.12457702892672     -0.84233810453682      1.14752434134426
  H          -3.96205467002898      0.39266479336699      1.71434155796829
  H          -3.15421729258035     -0.77199906198256      2.75022330693824
  H          -2.69521715617397      0.92235157017470      2.83882492378195
  H          -3.14662817804506     -0.70265819222887     -0.62947207031810
  H          -1.61218518853905     -1.55711760588782     -0.49597144469339
  H          -2.95317509145426     -1.98240056005562      0.57488170996750
  C           2.16632777778441     -2.78813804400218     -2.00240548205439
  O           3.43015600127909     -2.48799604816214     -2.25389719933945
  C           1.82868799050043     -3.03539845575577     -0.64792432505599
  C           0.56227059803255     -3.51107951046619     -0.24616042925066
  C           0.33689638177609     -3.84914039630999      1.06786916486062
  C           1.33956738113258     -3.70882162994236      2.02169486085788
  C           2.57173663104077     -3.17714860457838      1.65702881461692
  C           2.81743282989256     -2.84499277118529      0.34697005111486
  C           1.21958030322395     -2.90790086158436     -3.13535461111415
  H          -0.23642498864699     -3.61151340854482     -0.96395426029450
  H          -0.63274768058920     -4.22621078359051      1.35972386175546
  H           1.15745367715546     -3.99944123320127      3.04366740720424
  H           3.33844787236648     -3.02940493591557      2.40343349179099
  H           3.77158092267055     -2.42926327616914      0.05079197299269
  H           0.75109473764101     -1.94012178281197     -3.33999482205847
  H           0.41948744692887     -3.60363846776560     -2.92877139065407
  H           1.73878379858855     -3.21247987741789     -4.04099685937270
