67
Coordinates from ORCA-job TSA2R_3R E -96.876852797610
  Ru          0.22103345803945      0.75381041047949     -0.87177859822874
  H           0.13143388562492      2.27621011682408     -0.94553381121779
  N           1.73084513311568      1.06534993371047      0.59946971933856
  C           1.42848603429803      1.59024871250198      1.79397638900625
  C           3.01723860676303      0.76322012840261      0.31557055421674
  C           2.38637196210404      1.77355444160271      2.77691837257773
  C           4.02453602565578      0.92641138351773      1.27328197072899
  C           3.70579720439655      1.42399553758030      2.51430885250429
  H           2.10433922781741      2.19422965737741      3.72904566888474
  H           5.03726625547608      0.66048263710805      1.01719279234644
  H           4.46641521973748      1.55586910606835      3.26803135082117
  P          -1.14177350122377      1.03169423106494      0.98201739449211
  C          -2.65975182377690      2.16444818880979      0.89767396779528
  C          -1.50077995325380     -0.46397889426931      2.09717725992508
  P           2.11329232836921      0.91902923461134     -2.15766804694754
  Br          2.85937203517216      0.22841022411101     -4.11386626284301
  Br          2.82825429131308      3.05681572191145     -2.34802221457110
  C           0.01557693723236      2.03524613442505      2.01555853237111
  H          -0.06815169365219      3.06127544676894      1.63622264630184
  H          -0.24555813224068      2.03269737866524      3.07638893431906
  C           3.28968082655155      0.20338741810636     -1.00096332882730
  H           4.33585818087971      0.18306317243384     -1.30406749609520
  H           2.88365347860336     -1.05039078010987     -0.76543462254828
  C          -1.11001938901334      0.66075481210021     -2.14421451916168
  O          -1.96883980628990      0.72335840393938     -2.91060191928303
  H           0.42908014629797     -1.01891272336211     -0.81979879402568
  C          -2.96959533033292      2.88786665947406      2.20991808894812
  C          -2.38685062527172      3.22544064168556     -0.17126090822046
  C          -3.86235297645659      1.33652212533120      0.44297456310809
  H          -2.18629931379822      3.59681670324970      2.46643956496534
  H          -3.89334441375566      3.45141213018106      2.08340966120789
  H          -3.11045053714936      2.20758232633417      3.04186144152669
  H          -2.27114064461141      2.77010999634332     -1.15251254310161
  H          -3.22471166398903      3.91977136904465     -0.21377424407372
  H          -1.48776876625345      3.79939269157035      0.04511643489044
  H          -3.58651066374729      0.70120781620173     -0.39909427032132
  H          -4.25190911111296      0.71703866002432      1.24652588153324
  H          -4.66299214047556      1.99852452862589      0.11650893335129
  C          -0.12324764194524     -1.03306952158811      2.45963326021430
  C          -2.25626507070562     -0.19288586552090      3.39540267151965
  C          -2.27302146150023     -1.48013054065349      1.25148602221638
  H           0.38836491067940     -0.40081270933453      3.18404321306256
  H          -0.23590710134622     -2.01970209909968      2.90846675331637
  H           0.52011392354707     -1.13889786740286      1.58482934436516
  H          -3.28859345046246      0.09235501717321      3.21252035975899
  H          -2.27024555851366     -1.10921106848750      3.98561733795023
  H          -1.77172190489664      0.57566522728895      3.99443589520811
  H          -3.33382570858518     -1.24899734451653      1.21991784546254
  H          -1.89585236625933     -1.48572315182901      0.22706187189054
  H          -2.16483385822612     -2.48143842632276      1.66523552755895
  C           1.07562306810599     -2.13007062504223     -0.98426369665246
  O           2.20749467855449     -2.07432231696506     -0.30531838081086
  C           1.21714524944339     -2.31654773052653     -2.48314960794436
  C           0.19341286682864     -2.01775833658030     -3.37149456069759
  C           0.32700368612108     -2.31079822248469     -4.71612223039686
  C           1.47933721340287     -2.92147351249941     -5.18285376320572
  C           2.49607679315570     -3.23931618651261     -4.29983689986384
  C           2.36570908367742     -2.94039023669077     -2.95597677565022
  C           0.14783974073121     -3.24026583712048     -0.47842146634355
  H          -0.71806765282937     -1.55960124185609     -3.00672244844424
  H          -0.47135766777474     -2.06194594309584     -5.39929844264357
  H           1.58304683458894     -3.14721333491357     -6.23302251412422
  H           3.39566564859794     -3.71723535098075     -4.65675744969619
  H           3.14990034573972     -3.18669005030008     -2.25417175874192
  H           0.03068396717963     -3.18403302107107      0.59910769341260
  H           0.62746982015416     -4.18802966768870     -0.71940457740945
  H          -0.82167913850591     -3.20342571782404     -0.96794061900538
