26
Coordinates from ORCA-job NEB E -39.863475235750
  C           0.39682633651660     -0.07434505994803      0.97768411802943
  C          -0.78950817813271     -0.76865361098474      0.69428509305323
  C           0.37198616807799      1.02355020008347      2.01321020781173
  H           1.29564068480170     -0.68283743498641      1.02731734121339
  C          -0.79543242851952     -2.21947623274690      0.26709964040212
  C           0.52876214116214      0.88584542662520     -0.70402075065784
  C          -0.67282102645245      1.59674559930112     -0.76944282814896
  C          -1.87901572964202      0.82863858659743     -0.77971603190567
  O          -1.89095926672036     -0.07381178525512      0.53536640050130
  C           1.82175100957167      1.66666469321610     -0.71040731252506
  H           0.63413167197001      0.01643296221429     -1.34281844216586
  H          -0.70119930513510      2.59166705146611     -0.35138285194261
  H          -1.94854607217141      0.07145166567863     -1.55815638986330
  H          -2.79921589994930      1.39434926857287     -0.68740734877896
  H          -0.51830962612946      1.63670875759987      1.90738564014368
  H           1.25496749772084      1.65184897366863      1.96193885001016
  H           0.35242086345882      0.56031567222861      3.00004732756871
  C           0.06384017379261     -2.55243043690374     -0.95526110390767
  H          -1.83199728524871     -2.49783069219092      0.06710878318015
  H          -0.44360031895601     -2.82026341077940      1.11031168773813
  H          -0.30165494044570     -2.04068538711304     -1.84305774985762
  H           0.02214475705906     -3.62250939750006     -1.14556181717488
  H           1.10314342235765     -2.27903276691780     -0.79004961141282
  F           1.75874756491744      2.82155599640405     -0.00856111965409
  F           2.84722913985757      0.95369467901177     -0.17585383818923
  H           2.12066864623865      1.93240668265801     -1.74005789346746
