26
Coordinates from ORCA-job NEB_product E -39.912462752080
  C           2.60012837551398      0.57690288630126     -1.66507665319151
  C           1.52845242532662     -0.46319418570642     -1.96047095487289
  C           2.39549272198759      1.08983076164935     -0.23468291343998
  H           3.57474734034856      0.08077235638361     -1.71915361682341
  C           1.81067699236666     -1.84180844032637     -1.40673767037143
  C           2.56390991895627      1.70716470251565     -2.72307379154436
  C           1.66431859028694      2.85343566858949     -2.35160560286578
  C           0.44825089475589      3.01187102482951     -2.83621865798931
  O           0.54829181279874     -0.22345582607378     -2.61811922588586
  C           3.97214727003677      2.23364655148448     -2.98939147221263
  H           2.21087347757009      1.26967637810946     -3.66333682431087
  H           2.07965842019031      3.55894472112644     -1.64458345308858
  H           0.02145546786776      2.30484320084382     -3.52704753660238
  H          -0.17512098750295      3.83855294310655     -2.54149591234879
  H           1.40726957813582      1.53165964425033     -0.13010671523653
  H           3.14590736387641      1.83781140343005      0.00635234982172
  H           2.48691122953423      0.27368171339185      0.47784049416344
  C           2.57236741899163     -2.64084585732546     -2.46939328510571
  H           0.86376884525212     -2.33987010528409     -1.19431192576330
  H           2.40421431176803     -1.78453491167337     -0.49501171577951
  H           1.98410024225611     -2.70645424362861     -3.38140286283677
  H           2.76824884432484     -3.64749772720322     -2.10881040787502
  H           3.52267338113782     -2.16652419309384     -2.70447195898926
  F           4.57208508973905      2.68271686376889     -1.85867631951914
  F           4.77784205399974      1.24823853985072     -3.46502898912861
  H           3.98662892048096      3.05633613068368     -3.72078437820351
