17
Coordinates from ORCA-job NEB_product E -41.886375297140
  C           3.27072964847737      0.90054267320343     -1.19991607174269
  C           1.77697789808392      0.68608207952790     -1.16010407217275
  F           3.78659098826267      0.42529312497988     -0.02818547533887
  H           3.71192584651604      0.31051702074649     -2.01589731448528
  Br          0.98174354606430      1.02869131755096     -2.91397262003722
  C           3.58546214790292      2.40180305587696     -1.38258317466581
  C           3.10034832612121      3.17789811901332     -0.18601264803330
  C           2.16259034928542      4.10183411310348     -0.26072673108082
  O           1.09929594342410      0.35701862344131     -0.25897296047491
  C           5.07751220787392      2.65189460276264     -1.63056022117266
  H           3.06359471676268      2.74395464985033     -2.28338056641965
  H           3.55917574376381      2.90985348766003      0.75409884560459
  H           1.69728006319783      4.37261212146223     -1.19470176301999
  H           1.82542856483055      4.62925196398606      0.61378900441308
  Cl          5.30279706413340      4.39087605581284     -1.94524642534136
  Cl          6.09602512052434      2.19197682840916     -0.25687121669750
  Cl          5.62672182477551      1.75710016261299     -3.07305658933486
