20
Coordinates from ORCA-job NEB E -41.975523103160
  C           0.57935896852311      1.16929073464669     -1.46454588726261
  C          -0.73772181431288      1.77909799200619     -1.39410483050564
  C           0.82431548601988     -0.14218670662662     -1.46043575093526
  H           1.40409969779163      1.86831323314816     -1.47542304173240
  C          -1.94507759477842      0.80955890106176     -1.59110856927433
  C          -0.15261834795958     -1.72114325853770      2.05360482451091
  C           1.14025451015499     -1.06366714241372      1.70879842467393
  C           1.31560716313380      0.24134845138457      1.61121632493821
  O          -0.94875166909193      2.94773744338684     -1.21323947400383
  H          -0.05343243460252     -2.26282674344625      2.99410890543540
  H          -0.42788133814633     -2.44642906821317      1.28873217085177
  H           1.97308002941760     -1.73453096304720      1.54062706229162
  H           2.27327704618191      0.67348167384920      1.37538911883476
  H           0.50787208151841      0.93545577692227      1.78096805109540
  F           2.06282779490933     -0.59559751497454     -1.51367569822716
  H           0.10136371283538     -0.94557620859787     -1.42076079621524
  H          -0.95142690168241     -0.99042744601624      2.15093271132085
  F          -3.10038094165772      1.46171916668099     -1.62958760124169
  F          -1.83391907646722      0.11526338045096     -2.73730239042215
  F          -2.03084637178705     -0.09888170166431     -0.60419355413251
