20
Coordinates from ORCA-job NEB_reactant E -42.007041087000
  C           1.90123222425206      0.09646435866940      0.28421083343498
  C           1.45646763706400      0.99156054772105      1.16269561067452
  C           2.37707115887674     -1.30597197800209      0.49651824926455
  H           1.92379136140146      0.39281235859804     -0.75429357192227
  C           1.00168960605542      2.35895737387186      0.67629345805145
  C           4.19093532772477     -0.89109752063150      3.60829762343866
  C           3.36522438770338      0.11373876758812      3.38499412450528
  C           1.87121292697715     -0.01886912722375      3.32042351616468
  O           1.26809638320471      0.97157180825829      2.50409827656801
  H           5.25431628576377     -0.74463202164343      3.67612771487542
  H           3.83675944211803     -1.89987040322919      3.74906605519973
  H           3.73042420671879      1.12337170946948      3.25711949193723
  H           1.44724380619224      0.18529509780371      4.31054041014683
  H           1.56676906008114     -1.02519154855910      3.01415056569981
  F           2.97090970303937     -1.75671937621859     -0.65509422229953
  H           1.54243055439544     -1.99166506841747      0.69329467483232
  H           3.13236907081515     -1.38863445307759      1.28529151751864
  F          -0.25912581071217      2.62403348323433      1.03830948262752
  F           1.76399567849159      3.33546823107501      1.19068653010113
  F           1.05498698983698      2.49517776071343     -0.65303034081897
