20
Coordinates from ORCA-job NEB_product E -42.017205881180
  C           2.58959267600280      0.34746579426878      0.78115123623590
  C           1.15893666683431      0.68270571948870      1.07550176030009
  C           2.66338500210598     -0.87268575849496     -0.13942211796026
  H           3.05679607202542      1.19548692943809      0.26646959972673
  C           0.94705132148790      2.06431323332070      1.77462328182491
  C           3.35976320608603      0.12736494477829      2.10954573302061
  C           2.68868704260440     -0.85238775202775      3.02351900135143
  C           2.34958945267352     -0.58356378853150      4.26963057345257
  O           0.20716178409025     -0.00239007276156      0.83987241144024
  H           4.35079882229515     -0.24655711421984      1.83773573227392
  H           3.48663171174483      1.08253056837792      2.62116895608248
  H           2.50551349167683     -1.83528594106082      2.61201017927329
  H           2.52244803148658      0.38321789840927      4.71195595396427
  H           1.88358007181101     -1.32002289435991      4.90040927491867
  F           3.96153769997453     -1.06854339713194     -0.52885807799384
  H           2.07283342722819     -0.71468627483309     -1.04707170169523
  H           2.33109263357439     -1.78515044629587      0.36114298882046
  F          -0.19940632259631      2.62421969885555      1.39214735338869
  F           0.91222152811731      1.94152357309402      3.10684402884207
  F           1.92688568077689      2.93744507968590      1.49282383273300
