16
Coordinates from ORCA-job NEB E -25.498446645040
  C           0.62544420420807     -1.22257466623859      0.03742959332033
  C          -0.72661159329200     -0.92510195269104      0.19420164688775
  H           1.21619615526804     -1.29855845399722      0.93607138027823
  H           0.90906425413430     -1.91467992187176     -0.74295991648828
  N          -1.62202723409693     -1.15102996562915     -0.83514209746673
  C           1.22153733204660      0.55896000658127     -0.51096058195391
  C           0.80592794029082      1.38768720445225      0.51850847402245
  C          -0.60978626792828      1.41095793095304      0.76482896093542
  O          -1.09375689051813     -0.06145469742141      1.10868709018482
  I           3.31362629882816      0.36955959771272     -0.87695967656444
  H           0.69460878867686      0.57934885104048     -1.45550167888495
  H           1.46374822055157      1.55714415413851      1.35740139003498
  H          -1.22588237609887      1.64764593516205     -0.10267258425615
  H          -0.91640944028551      1.97095719572528      1.64140453842578
  H          -2.58583641427211     -0.94721844878203     -0.62300566628556
  H          -1.46984297751261     -1.96164276913441     -1.41133087218974
