16
Coordinates from ORCA-job NEB_reactant E -25.524007606640
  C           2.48728475631313      0.23597443323019     -0.71347070017140
  C           1.56816582261546      0.88738461706638     -1.42233787231184
  H           3.12160568009854      0.71171428724810      0.00664111619105
  H           2.64005876344838     -0.81331420439845     -0.87555220800490
  N           0.81570379330327      0.30683209537997     -2.43309776964895
  C           3.85843719500920      2.95044758961116     -2.14070215557487
  C           3.39830457862860      3.33106992755394     -0.96680588582576
  C           2.00600624331098      3.03807146752477     -0.48198929922462
  O           1.24127652179546      2.21787631569433     -1.32526542915988
  I           5.80776544799409      3.37849572709664     -2.79778602749687
  H           3.28085756412009      2.38772825838071     -2.85298998305813
  H           4.00232797065655      3.89706020852325     -0.27222209752869
  H           1.44642089927897      3.97942589389398     -0.42285783283044
  H           2.05852675898873      2.61337752555334      0.53129327975510
  H          -0.02813541031198      0.81747686562226     -2.64600930739123
  H           0.67889341475053     -0.68692100798057     -2.34154782771856
