21
Coordinates from ORCA-job NEB_reactant E -40.336922836850
  C           1.72397266398528      0.25913151874563      0.11257429157845
  C           1.22403679475727     -0.92637622895452      0.49314621223362
  C           2.16383038510972      0.57314584188267     -1.27147893418450
  H           1.81299819850070      1.03565456588273      0.85765271463860
  C           0.83696165032241     -1.11729424099474      1.84342183049292
  C           0.58608960455264     -5.43044157528970     -0.90243892885757
  C           0.42483092173524     -4.12258156127418     -1.02328273860072
  C           0.55204422561272     -3.16533863707641      0.11507043784789
  O           1.07833833846413     -1.96106902938338     -0.39622951960544
  C           0.43880019748795     -6.42926599860996     -1.98140319045018
  H           0.83506164791227     -5.87325747691488      0.05506422116294
  H           0.18452074683576     -3.65764885879458     -1.96963328966707
  H           1.19505132097182     -3.57345631780007      0.90747876512905
  H          -0.44763539331427     -2.99257908652226      0.54847481519380
  H           2.02986130735083     -0.28693542459486     -1.92072691007174
  H           3.21392217389328      0.86483640593631     -1.27211078611657
  H           1.59108342950845      1.41331217902248     -1.66389662033542
  N           0.52624206340165     -1.27321703764063      2.93699569378446
  Br         -1.00264278047179     -7.69574739734192     -1.50368110882804
  Br          0.02219984374645     -5.69315723889323     -3.72406045904460
  Br          2.11053265963749     -7.46251440138446     -2.14923649629992
