21
Coordinates from ORCA-job NEB_product E -40.335821544270
  C           1.36844815880007     -1.73984265560622     -0.43659167986932
  C           2.52043174865395     -1.66583104101434      0.56354713308373
  C           1.86342661417702     -1.29220697974107     -1.80867081544153
  H           0.64961223737237     -0.99117891671374     -0.06692036763704
  C           2.23637855567142     -2.30417169904473      1.84358778939943
  C           0.59986054527622     -3.08004810468631     -0.37641220983068
  C          -0.77759229057971     -2.93727440383329     -0.96818052485020
  C          -1.87501064562971     -3.32091508504910     -0.34386134663810
  O           3.54163171115067     -1.06227276570343      0.37182786939619
  C           1.30421380377614     -4.27574671898357     -1.01712788876761
  H           0.48534849670201     -3.33927285656992      0.68612291007209
  H          -0.82547790595565     -2.50535181302215     -1.95750483550881
  H          -1.85199360546462     -3.75909285340127      0.64076832828796
  H          -2.84474445749193     -3.21250405388774     -0.79657183741707
  H           1.06241623513265     -1.29394480355237     -2.54216173256011
  H           2.67570270290962     -1.92270596986660     -2.16293398842000
  H           2.25401850653152     -0.28017274297433     -1.72920270627832
  N           2.01466583289379     -2.80207074506847      2.85009999910630
  Br          0.42736074032715     -5.92136824387663     -0.40804001435084
  Br          1.21905766872891     -4.30380889669073     -2.96060505327426
  Br          3.19244534701808     -4.39251865071397     -0.48546902850181
