18
Coordinates from ORCA-job NEB_product E -36.279025586710
  C           3.03726031349403     -1.07885181815658     -1.62485090654524
  C           1.58628994259298     -1.55982893668800     -1.79714721658970
  Br          3.28237905046128     -0.03684599900239      0.01747782711434
  H           3.67844577670286     -1.96190001503209     -1.50849869550817
  N           0.94687615133299     -1.89226035109348     -0.66841725129705
  C           3.48808744681543     -0.29835934821196     -2.85747142689374
  C           3.05366412812045      1.13757549013459     -2.86155890289250
  C           1.95669768870157      1.54976253090819     -3.46714317004070
  O           1.10988609652369     -1.67464799084676     -2.90235807611955
  N           4.97060406127385     -0.39778921451683     -3.02972425542627
  H           3.04611063937980     -0.81893291077113     -3.72149192585655
  H           3.68915001435044      1.82096620613806     -2.31565494735521
  H           1.32027834322060      0.87082891835130     -4.01074703629258
  H           1.64809697074578      2.57929872002771     -3.42847436314445
  H          -0.00026924200934     -2.22634061277644     -0.73774148232464
  H           1.34517173859717     -1.75059116867409      0.24482054795509
  O           5.52255311570788      0.53569262020474     -3.54883618397897
  O           5.50121776398855     -1.41977611999483     -2.66658253480411
