23
Coordinates from ORCA-job NEB E -63.195687464860
  C           0.87495875674974      0.33407345988039     -0.34025074437312
  C          -0.04724793962019      1.40215177326834     -0.35246076627040
  C           1.22805899829894     -0.25511258572954     -1.69169298022406
  H           1.78778161197860      0.50429562387885      0.22752477338450
  C           0.10482334931869      2.57650293716047      0.53526774279222
  C          -0.12670917090086     -0.94193420665920      0.72024011431510
  C          -1.32178947534902     -1.05227093852598      0.00941433045326
  C          -2.09545833475737      0.14562686977931     -0.24781429333984
  O          -1.24690607228744      1.23559999499563     -0.87286859105315
  C           0.60650582324768     -2.20823243192173      1.09148377613613
  H          -0.12201920854920     -0.28481021411114      1.58848640186025
  H          -1.53867446228366     -1.94940382534067     -0.54567984954370
  H          -2.46203185709729      0.62438587835079      0.66476607006781
  H          -2.90457355196409      0.00556533411441     -0.95976494201480
  Cl         -0.11890275008119     -0.94343171038037     -2.58938729872589
  Cl          1.87893796119428      1.11646185924276     -2.67876611117200
  Cl          2.53486021845576     -1.44432427036477     -1.58280726949648
  Br          1.92217056652773      3.19577774526563      0.71488915055027
  Br         -1.02265744218878      4.01565067991898     -0.08325652376610
  Br         -0.54961100703193      2.12474384258294      2.44328923301592
  Cl         -0.24613071570211     -2.87758941327913      2.52911420031772
  Cl          0.58521207757783     -3.45118404607831     -0.16374546273960
  Cl          2.27940262446387     -1.87254235604764      1.58401903982596
