23
Coordinates from ORCA-job NEB_product E -63.232983761450
  C           1.57182252213053     -1.62882139644016      1.69168884029010
  C           1.23881129851213     -0.29990158933456      2.36801350930811
  C           1.35434460527288     -1.36585592212572      0.18900999346646
  H           2.62147143650423     -1.89851677648429      1.83179749549143
  C           2.39054381937429      0.56182903009886      2.89545249849207
  C           0.68981853250839     -2.79797173192232      2.19514445116528
  C           0.99367225054744     -4.04438183051305      1.40449194006573
  C           0.09395679942303     -4.68939411668233      0.68789017215254
  O           0.12134056001249      0.10753397794663      2.47710589074758
  C           0.89929164255219     -3.09981993664992      3.68886212314854
  H          -0.36341809086678     -2.52684588711753      2.07254753303527
  H           2.00974369661290     -4.40248235959792      1.48627164831026
  H          -0.92475430887923     -4.34931602364604      0.60762891098955
  H           0.34533239749277     -5.58489983302812      0.14799800315054
  Cl         -0.35546649431077     -1.40983599304144     -0.26470316715598
  Cl          1.96170586609782      0.27216528214475     -0.21401109263913
  Cl          2.25860535630948     -2.52276525164831     -0.80616199597587
  Br          4.16200484583268      0.14335159725765      2.25418806243144
  Br          1.98841037256101      2.41562914767812      2.48020733963352
  Br          2.41720196902481      0.37415400789180      4.83470497165991
  Cl          0.23544540682173     -4.71166124305544      4.06698976764311
  Cl          2.62308273226174     -3.10691619466391      4.13080778376796
  Cl          0.03513278420424     -1.93367695706677      4.71997532082156
