17
Coordinates from ORCA-job NEB E -37.883614909220
  C           0.76668583630447      0.78528001216838     -0.03597279865755
  C          -0.51474263025055      0.52288846709327      0.48691382172747
  I           0.76324867660488      2.07722346670953     -2.00226312693138
  H           1.35238614698466      1.44993647977222      0.58997229572319
  C          -1.10965701738887      1.32870352711428      1.59637674990888
  C           1.52625494883832     -0.50638087954214     -0.44511256031072
  C           0.59563593944018     -1.44645640356759     -1.08111613190890
  C          -0.81695759601439     -1.49221859523462     -0.72469741513943
  O          -1.35508163053888     -0.43359165322469      0.03102498657039
  H           2.36431463090101     -0.28103914835329     -1.10897963789574
  H           1.95134592086804     -0.90504175202438      0.48513716678315
  H           0.88741661403891     -1.95425827023552     -1.98356354644094
  H          -1.04426545208454     -2.38709376771918     -0.12407570749395
  H          -1.43494142323149     -1.57433269902838     -1.62901773968310
  F          -1.83370323609008      0.57165692181401      2.43333156831907
  F          -0.16576964778157      1.93448085462503      2.33732339333696
  F          -1.93217008060009      2.31024343963307      1.17471868209260
