17
Coordinates from ORCA-job NEB_product E -37.929265959940
  C           3.09709877523457     -1.19213509340766      0.45713560808845
  C           1.60899431837146     -1.13402771377736      0.58911157548113
  I           3.71874164449244      0.34243354981291     -0.92476937454768
  H           3.56315319335515     -0.94528045609670      1.41368197720850
  C           1.05403847449379     -1.98372862960463      1.77641821185268
  C           3.54846926899990     -2.59312111024865      0.01321048215781
  C           2.89410622092779     -3.02657869476950     -1.26394545584235
  C           2.13373357577990     -4.09749930723477     -1.38082846145375
  O           0.84950823851605     -0.53882814356918     -0.11035704823480
  H           4.63409566144894     -2.56977840402670     -0.11987750606452
  H           3.32301037674244     -3.30514089962587      0.81172595767648
  H           3.08739007875543     -2.39284544558753     -2.11952480288735
  H           1.92508358081131     -4.74629309101604     -0.54614056003581
  H           1.68932209975803     -4.37175173010294     -2.32128153340458
  F          -0.05631650399449     -1.44913754006220      2.27349185962435
  F           0.76832093561174     -3.23208246030675      1.38632749881707
  F           1.93525006069556     -2.08740483037645      2.78502157156437
