25
Coordinates from ORCA-job P E -31.646107317210
  C          -1.32483094026226      0.23467313382183     -2.49856447099557
  C          -0.09673103652901     -1.74841392219586     -1.02015715989344
  C          -1.50956165638815     -1.96246948273721     -1.45953096494573
  C          -2.10548467851769     -0.99511813509099     -2.13754889176840
  C          -0.52531187569321      0.75049233824686     -1.28244041213262
  C          -0.00502059325304     -0.36456332933833     -0.35779168651928
  H          -2.01286599020502     -2.87607404751933     -1.18496774824014
  H          -3.13059966516665     -1.06461059769767     -2.46731618415262
  C          -2.23025901795299      1.32231426762325     -3.08273150655569
  H           0.22679173336651     -2.51557505539293     -0.31728987560423
  H          -0.59891649397117     -0.05563807355031     -3.27093782579153
  H           0.57190563578517     -1.77417587524894     -1.88687313672368
  H          -1.16590392764977      1.41989462200954     -0.70610311628064
  H          -0.61965853566804     -0.40082032933123      0.54752730917877
  H           0.31867752647122      1.33803279604698     -1.64855300309634
  C           1.42780932005479     -0.06410467232097      0.07137625777920
  C          -1.46078249924406      2.52319577105533     -3.62057113393683
  H          -2.93361074322666      1.65375036337313     -2.31500959963889
  H          -2.81172096633655      0.88459905804746     -3.89784269621104
  H          -0.94144317793165      3.04673621582971     -2.82212527895821
  H          -2.14294435945296      3.22389907939187     -4.09662217001097
  H          -0.72760092755918      2.20585629351737     -4.35936560027443
  F           1.84825081223344     -0.96100081489855      1.02499231985975
  H           1.50981652543256      0.92994539761720      0.52406795900879
  H           2.12531553166439     -0.15152500125818     -0.76881138409624
