22
Coordinates from ORCA-job NEB E -33.222152338270
  C           0.30469724086158     -1.15789602860498     -0.65246865853027
  C          -0.65074587849369     -0.16129139777265     -0.72697688057126
  C          -0.01127675827154     -2.46731929389981      0.01210582780451
  H           0.99469618025745     -1.21262142013369     -1.48449945167303
  O          -0.44645589437685      0.77481612177045     -1.71236834921957
  C           1.49395926940108     -0.19074892011766      0.87401058285898
  C           0.71084130782626      0.86754770170896      1.30490852554263
  C          -0.61624975626073      0.61217214827384      1.68828539461809
  O          -1.45556430231309      0.11512355882148      0.22754026581927
  O           2.70141151539146     -0.00627213960539      0.29221793570951
  H           1.47338610299621     -1.12314499516145      1.41896805470918
  H           0.93907401017860      1.84927607917382      0.90065461880493
  H          -1.23805684579369      1.44827984277420      1.97361497531099
  H          -0.80501106303242     -0.28559734666976      2.26085581335574
  H          -0.67736368884197     -2.32174160949632      0.85831883775292
  H           0.89440155162927     -2.97326511130859      0.33878783172411
  H          -0.51331155712482     -3.11996193782484     -0.70394067970028
  C          -1.30199992204543      1.89942205417403     -1.69051761817175
  H          -1.06723227235597      2.47090602566069     -2.58586126622934
  H          -1.13070586204711      2.51132824123598     -0.80092306132724
  H          -2.35009822591801      1.58984199491999     -1.70526131448087
  H           2.75160484833343      0.88114643208168     -0.08745138410724
