22
Coordinates from ORCA-job NEB_product E -33.269486267080
  C           2.53454145828614      1.28146128481651      0.53565692719961
  C           1.25975959296647      2.07700881079024      0.26278595844187
  C           2.16051101239462     -0.14548637837687      0.93019799204071
  H           3.17180002604903      1.26386718422285     -0.35073254556919
  O           1.22062436680356      2.94204176544785     -0.75481602446081
  C           3.33783422541983      1.96554684006979      1.66659924458186
  C           2.56307897444186      2.02916905042864      2.95103542173436
  C           2.95689727744081      1.44843692745399      4.06859621050973
  O           0.27064425411980      1.94604688010492      0.93479677298082
  O           3.69077392724435      3.26588452486087      1.21226381402294
  H           4.25965704805963      1.37937902869659      1.82604562871052
  H           1.65031793613245      2.60546849256286      2.90816075393847
  H           2.38500868751049      1.52012109083203      4.97740938719071
  H           3.86382527752122      0.86648950971616      4.11877332310008
  H           1.45406307122521     -0.12799921176454      1.75558006420246
  H           3.04646044732787     -0.69918501767697      1.23192503454162
  H           1.69609897800637     -0.65660853458962      0.09042543080221
  C           2.33404037480529      3.22816534056715     -1.58128497637694
  H           2.02231634489583      4.06948232929749     -2.19842312947659
  H           2.57362170280148      2.37996504885824     -2.22887008626466
  H           3.20345153896130      3.51108595343582     -0.98669344859070
  H           3.99437347758639      3.78345908024601      1.96546824674094
