23
Coordinates from ORCA-job NEB_product E -61.814876549860
  C           2.87933155282492     -1.47111921109332     -1.51079336521383
  C           1.38487670731195     -1.68839274261948     -1.30527551932601
  C           3.20411895840158     -0.13523516565350     -0.82266569379464
  H           3.46335114606700     -2.23355491912233     -0.98666102380176
  C           0.89664810161835     -2.79376484149305     -0.36895699931753
  C           3.28716496690211     -1.43962167573309     -3.01204031002337
  C           2.13199263221464     -1.26967092034787     -3.96253870116519
  C           1.95406446881113     -0.18743331414694     -4.69608645880524
  O           0.56048629087755     -1.00698023134966     -1.83932375691334
  C           4.06776218400371     -2.69867125323702     -3.38904381515809
  H           3.97156460294161     -0.59301497570812     -3.14940691089825
  H           1.45431971960453     -2.10903543539116     -4.04703221372371
  H           1.12688630021622     -0.10847794577851     -5.37807569833910
  H           2.61510800611232      0.66109348936353     -4.63740267870122
  Cl          2.38250500674430      1.22735681783666     -1.60352063304721
  Cl          2.67682448012014     -0.22985811957921      0.88192238836644
  Cl          4.96047988734032      0.16418245284666     -0.84090952251684
  Br         -0.28998740764380     -1.96244288442173      0.93455373699411
  Br         -0.17785225421975     -3.99609336377633     -1.47574427812291
  Br          2.22437092196619     -3.82342779471944      0.57164378949960
  Br          4.56443770230055     -2.61861891821894     -5.27178971281156
  Br          5.72179726699256     -2.87320620104025     -2.35294729456942
  Br          3.01804875849187     -4.31501284661688     -3.10020532861095
