23
Coordinates from ORCA-job NEB_reactant E -61.812846586930
  C           2.37972753891138     -0.37936265759162     -0.44239950496629
  C           1.57804501046971     -1.33218642372079     -0.93015402002084
  C           2.52198357500778      1.02082101816999     -0.91034935565682
  H           3.00848288716211     -0.61985944497033      0.40426707912661
  C           1.54976270603306     -2.68009394820777     -0.23771798131053
  C           3.42014498257526     -2.03371917979010     -3.96985963226007
  C           2.13744309817493     -2.19402193798587     -3.68469209589209
  C           1.24863093016702     -1.05610205492240     -3.28750882599563
  O           0.72815386326991     -1.27654512089657     -1.97175147597917
  C           4.37526822161531     -3.10292321117675     -4.33285669207005
  H           3.86795858729601     -1.04685390267720     -3.96532616831431
  H           1.67109316793863     -3.17101963064602     -3.67987405360154
  H           0.35465452254031     -1.03092236638684     -3.91532111980697
  H           1.77612583380811     -0.10253689997515     -3.35350600089946
  Cl          1.00637375316802      1.69966940001057     -1.54639417059261
  Cl          3.05367129985204      2.04373915260673      0.45112415832582
  Cl          3.79063142232006      1.12668978113406     -2.18326791643641
  Br          1.39545376879911     -2.53311257538378      1.69379794920914
  Br          0.08555446339606     -3.74870469246336     -0.89322247329828
  Br          3.22528547245937     -3.62131148958040     -0.65020883518994
  Br          5.93285899236977     -3.00026261865627     -3.13175072938088
  Br          3.66309227424673     -4.90140103044056     -4.24499034911551
  Br          5.01060362841931     -2.78998016644955     -6.17343778587418
