18
Coordinates from ORCA-job NEB E -42.248101148170
  C          -0.26865509122603     -1.12336353519074      0.77590980890524
  C          -1.42113092930497     -1.22720294972641     -0.03188657306302
  O          -0.40894204778673     -0.46623337708476      1.95364618348416
  H           0.40509469130522     -1.97906312953635      0.77647153787568
  Br         -1.24577559367245     -2.57629665214878     -1.44779166452473
  C           0.64538939513714      0.18704630662270     -0.39786915360313
  C          -0.29070378283904      1.22146463631117     -0.49125588048321
  C          -1.49554013876657      0.96663636352935     -1.17562895979776
  O          -2.20336920047748     -0.27493593691264     -0.25099274816182
  C           1.93364618676533      0.46705279667104      0.32888196715371
  H           0.81442887233988     -0.45531832822412     -1.25760205878752
  H          -0.27294353488706      1.99770533623135      0.25969482517923
  H          -1.43812036358685      0.43652130551434     -2.12158146745566
  H          -2.26260722130505      1.72712672264889     -1.14565932468008
  H           0.37108218232296     -0.56915478600995      2.51202768984533
  F           2.51476779051627     -0.65269062294887      0.80380726403058
  F           1.78703211057190      1.27696807715284      1.38608678801633
  F           2.83634667489351      1.04373777310093     -0.47625823393334
