18
Coordinates from ORCA-job NEB_product E -42.290276542680
  C           3.27548551901819      1.33420026001209     -0.76991446609715
  C           1.77519135564024      1.15301262719621     -0.85870287565794
  O           3.83643600204943      0.35066417461510      0.02861980203349
  H           3.72341848937609      1.22194350375724     -1.76537328981406
  Br          0.97061605840243      2.19591562663280     -2.28854236638251
  C           3.54139563275941      2.78607583688467     -0.26223209710491
  C           2.84786497011170      3.05199282824192      1.04616643325028
  C           1.84280397586405      3.89683469970594      1.17400305114790
  O           1.10061947435514      0.49146144061242     -0.15107242582153
  C           5.04737031915998      3.00078847064487     -0.10604738049820
  H           3.20472742231108      3.49587619421016     -1.02500888268404
  H           3.22759968979372      2.49881047397722      1.89449613827360
  H           1.46152206152906      4.46271384875865      0.33982922368805
  H           1.36177622478979      4.05572325099352      2.12262584434003
  H           3.32047260680212      0.23417843451551      0.83808376405469
  F           5.72097473061256      2.67009196803477     -1.21510296523537
  F           5.58095499274445      2.30923410701908      0.90199607440944
  F           5.31647047468057      4.29358225418782      0.13227641809823
