18
Coordinates from ORCA-job P E -24.657949868890
  C          -1.39405264283283      0.46008347440982     -2.53460297345316
  C          -0.19841750129122     -1.55830690489687     -0.69679516142315
  C          -1.14642964095791     -1.90686890290307     -1.80333504366394
  C          -1.67159389287212     -1.01476640561741     -2.62554521189876
  C          -0.13699929844877      0.72200864128029     -1.69398797227900
  C          -0.25749235059443     -0.07065835023523     -0.41039560118892
  H          -1.37276259820888     -2.95818787215804     -1.91421805929800
  H          -2.35758967187394     -1.31899945091614     -3.40375170660825
  N          -2.53318188860003      1.11353866435528     -1.89226602304892
  H          -0.44737913870575     -2.13473414422774      0.19783993871747
  H          -1.21629923681598      0.84538489710070     -3.55772829449896
  H           0.81419246282794     -1.85051402337642     -0.99809751711679
  H          -0.05894208431285      1.79127543617464     -1.48872032137136
  H          -1.19420319922457      0.18927188694658      0.08177687487422
  H           0.74869817896598      0.41101897862900     -2.25211708817584
  I           1.30659797601292      0.48608607063045      0.99922619731940
  H          -3.39835432098827      0.85090110339522     -2.35114559677436
  H          -2.44257115207927      2.12253690140892     -1.94850644011167
