18
Coordinates from ORCA-job R E -24.572963500010
  C          -1.18387553091129      0.03997403418100     -3.08767914389071
  C          -0.16260819092991     -2.44190058462492     -1.66538117152538
  C          -1.40633934667608     -1.96666748093008     -1.64743050279298
  C          -1.90224512358340     -0.78254950444733     -2.30781079671994
  C          -1.09404888995167      1.10591201448922      0.23415870925316
  C           0.02998442266468      0.43554252837504      0.34655007314301
  H          -2.15366450149323     -2.50437536207637     -1.07499026639236
  H          -2.94702141918130     -0.54875122635880     -2.14212179361864
  N          -1.65370099836092      1.22128313409205     -3.61242686195409
  H           0.10091718926664     -3.33713014931745     -1.12888729238245
  H          -0.14078876268716     -0.14971282904106     -3.29075658218117
  H           0.63472345935322     -1.96741571074085     -2.21036637638482
  H          -1.96300649288749      0.80776742280914      0.79892840280511
  H           0.16646062786906     -0.42128207053102      0.98183705146103
  H          -1.20604932172445      1.95316844498198     -0.41995569524377
  I           1.77033289063795      0.93886909572865     -0.72142860534479
  H          -2.65643633908277      1.33137828929361     -3.62340172897265
  H          -1.18610367232190      1.56876995411719     -4.43357741925858
