18
Coordinates from ORCA-job TS E -24.557190950870
  C          -0.41019737831201      0.42275040701392     -1.19319760542288
  C           0.88416260750807     -1.65916138447096      0.30800044056919
  C          -0.44438224106872     -1.69563521297402      0.00549999120111
  C          -1.07639175737149     -0.68490036932008     -0.73321453400311
  C           0.16274550125736      1.14568623451052      0.93405345993208
  C           0.91476310579999      0.19916594718280      1.55100805318130
  H          -1.08138452526845     -2.41076631161951      0.50899664114920
  H          -2.15720801582435     -0.68798463309018     -0.78598741658960
  N          -1.05417044291230      1.44110899850964     -1.85002523622118
  H           1.31014807159361     -2.40651419094767      0.95847433130354
  H           0.65294539176412      0.39401968097030     -1.37112974933118
  H           1.58325238275380     -1.18734960246069     -0.35851740783749
  H          -0.88294005825655      1.22744339636394      1.17509418067538
  H           0.53588271697289     -0.40316796211270      2.35594128543563
  H           0.61492532641901      1.98728387611641      0.44112277847371
  I           3.02448567495668      0.45388155333070      1.67660706889556
  H          -2.03101311336751      1.56592314803624     -1.63406508505967
  H          -0.54562324664415      2.29821642496134     -1.98866119635158
