18
Coordinates from ORCA-job NEB E -34.263795429020
  C          -0.70376649219133      0.89358111484563     -0.26949190407883
  C           0.42898171370369      1.16910264793093      0.49002150709143
  C          -1.90872813214722      0.30283962089434      0.41692075565825
  H          -0.95014142775358      1.60657692538741     -1.04684304045093
  O           1.29113727973861      2.10676623211930      0.01254277030533
  C           0.13166107612657     -0.66588027828622     -1.27472828839824
  C           0.51146085327304     -1.51012946683953     -0.24072104352828
  C           1.48589772721553     -1.03613057414561      0.67340518468595
  O           0.85304463303623      0.34768481426235      1.38635204702920
  Cl         -1.09149637182149     -1.19508396558575     -2.38166507884213
  H           0.87266533079268     -0.05099095591910     -1.77219814226021
  H          -0.17183923793168     -2.28120395978857      0.08005389539435
  H           2.38485845910732     -0.60410604442788      0.24354773714842
  H           1.68536545447026     -1.65079334416264      1.54064541157062
  F          -2.95746373074336      0.18519525762382     -0.45313187903929
  H          -2.24957693159233      0.97271140625306      1.21660154058750
  H          -1.71128496940361     -0.68878741006526      0.83439719547632
  H           2.09922476612067      2.09864797990369      0.54429133165054
