18
Coordinates from ORCA-job NEB_product E -34.317127706640
  C           2.25335254012960     -1.08756473926685     -0.26287128219961
  C           1.25760444112745     -1.68753254106514      0.74830988194221
  C           1.51593037911946     -0.03668402392015     -1.09842535378355
  H           3.05067110615020     -0.57953667403989      0.29314835384844
  O           1.75966553946816     -2.56415409325116      1.60739387848317
  C           2.87439575891087     -2.16293619748152     -1.16850624748927
  C           3.64102407027233     -1.58603006183823     -2.31115744149843
  C           3.42266747755225     -1.91676267220114     -3.57045227042130
  O           0.10278625007386     -1.37144651948774      0.77191247924874
  Cl          4.05046926241010     -3.17582821760656     -0.21499631327796
  H           2.10481832291891     -2.85468005836317     -1.52301330429078
  H           4.41037209919531     -0.87638493372237     -2.04353907033750
  H           2.65827272401968     -2.62325910569283     -3.85122692406146
  H           3.99625926882179     -1.48595878483982     -4.37164747151740
  F           2.40389390419643      0.83198436927592     -1.67709982257181
  H           0.85447411256663      0.55506343794793     -0.45993593437032
  H           0.93791570956204     -0.49598400830236     -1.90492635443896
  H           2.68392703350493     -2.81130517614490      1.40863319673580
