18
Coordinates from ORCA-job NEB_reactant E -34.293372574120
  C           1.40519488053762      0.10076313025564     -0.09541463361689
  C           2.49489398107560     -0.61445437996073     -0.39273420077846
  C           0.38887209600319      0.49578468260030     -1.10937692852621
  H           1.27364985672004      0.47842772377156      0.90594449940165
  O           3.43779473266389     -0.95434752357820      0.52573564502202
  C           3.43587736528275     -4.36174069120617     -2.12829413020423
  C           3.58190973427732     -3.31339730113432     -1.33708577178700
  C           3.82994229394760     -1.92903834619378     -1.85990602210203
  O           2.71764052934029     -1.06997640185269     -1.63940085421288
  Cl          3.14468161159879     -5.94435428358332     -1.53218975000979
  H           3.50426882454467     -4.30946764198998     -3.20442863230913
  H           3.49838357063223     -3.40746875954636     -0.26458324212303
  H           3.95460071437756     -1.93932609316254     -2.94444304693771
  H           4.72544787451648     -1.50915677694927     -1.38768443239442
  F           0.46409752994086      1.85398485607201     -1.38165112159171
  H          -0.63175614635881      0.32608170526525     -0.74901975436616
  H           0.55749755368665     -0.02118572109093     -2.05638151415717
  H           3.23580299721324     -0.53722817771645      1.37011389069315
