21
Coordinates from ORCA-job NEB_product E -44.560859975350
  C           2.99707005647359      0.60225713905850     -1.30459466193863
  C           1.65444956179496     -0.07865408228868     -1.45245985796953
  C           3.08964122345308      1.03986650545895      0.07549262735765
  H           3.82868898849631     -0.08417025853488     -1.50322602878798
  C           1.71385073556880     -1.54516041798276     -1.87312230087366
  C           3.06008103379888      1.79553127285971     -2.30217926667475
  C           2.04220446718916      2.84100707100722     -1.95150903636886
  C           1.05117848302504      3.18827253744629     -2.74969868312579
  O           0.59716348783866      0.44989420972037     -1.28351867149692
  C           4.47492998122730      2.38367572809859     -2.32487236153932
  H           2.86346244427479      1.40580643085675     -3.30790876180861
  H           2.17651700043651      3.30502595735291     -0.98436721067099
  H           0.90522010427985      2.72891599097482     -3.71439648295307
  H           0.34056747307614      3.94445444994798     -2.46804685946797
  N           3.13651885546750      1.33850561742250      1.17497796199130
  Br          2.70776518273110     -2.56255977719477     -0.53153831873137
  Br         -0.07239272548501     -2.25367828287118     -2.05704031301183
  Br          2.63578603320453     -1.65398389305933     -3.59020552582529
  F           4.83348109510589      2.86896029968905     -1.09850268388275
  H           4.51845482572304      3.22202902807689     -3.02745402683096
  H           5.21866169231987      1.62640447396107     -2.59862953739068
