21
Coordinates from ORCA-job NEB_reactant E -44.563609248460
  C           2.17186898948575      0.06574414830637     -0.41241194043469
  C           1.56665581227522     -0.08639925168829     -1.60292452539626
  C           2.36079606728409      1.26613679749640      0.28897961009072
  H           2.56864404643094     -0.80139564550746      0.09830431994929
  C           1.48695921443257     -1.44045629843663     -2.25487393016626
  C           3.46651973619794      2.25517768920180     -2.80900084374764
  C           2.43875617703884      2.80634434655424     -2.18630914889675
  C           1.06836748235997      2.20615693571767     -2.08720258909799
  O           1.01519475636072      0.82539808823736     -2.41060364039702
  C           4.82059460584849      2.87703572915860     -2.90868336955564
  H           3.39788361848632      1.29607832639299     -3.30377034399202
  H           2.54008612699107      3.76795206639566     -1.70588070618746
  H           0.40276491663598      2.67306145216787     -2.82179210004547
  H           0.65192590210104      2.37393216251894     -1.08759355967922
  N           2.53928740583857      2.20245787406195      0.92774260397433
  Br          1.23913530180413     -2.89484392123683     -0.99374443565013
  Br          0.03742059908965     -1.50181943919851     -3.54057934623305
  Br          3.17920268912307     -1.75397161747130     -3.22775917877544
  F           4.85220462106373      4.13311967641701     -2.36688259435512
  H           5.12506104626239      2.97247914057797     -3.95839536856752
  H           5.56527088488954      2.27631174033417     -2.37071891283665
