21
Coordinates from ORCA-job NEB_reactant E -40.980357935210
  C           1.00785661983760     -0.31429095023738     -0.40895885614052
  C           0.91873337730284     -1.53335061979726      0.15582866831504
  O           0.57726250954793      0.00214711280896     -1.64197710227713
  H           1.45676394740498      0.47071293426623      0.19061141081825
  N           1.39637720424811     -1.68314146163746      1.50928394466312
  C           1.77933750928205     -2.13501290367062     -3.61657296759252
  C           1.64203707001524     -2.70946629999669     -2.42367555507710
  C           0.32911947458650     -2.85935784762412     -1.72385032331228
  O           0.44482041980951     -2.70908971618364     -0.32067079910697
  C           3.02753020659778     -1.99649254677125     -4.25344492769104
  H           0.93120646839840     -1.73431442112014     -4.15674209161986
  H           2.50094979861613     -3.10138783516813     -1.89431131376044
  H          -0.04023035502426     -3.88402856240048     -1.84666998591564
  H          -0.41148692747799     -2.16089989509903     -2.12996566222142
  C           0.96610080097688      1.27609930599943     -2.12106597588632
  H           0.41604696009842      1.43461767424777     -3.04633772868045
  H           2.04002307115059      1.30239523743246     -2.32551055149790
  H           0.71318491695875      2.06091707940517     -1.40414833336459
  O           1.41368693368238     -2.79901287249553      1.97037048731941
  O           1.75297995479743     -0.67736758612601      2.09401263448223
  N           4.03870003919072     -1.85907582583228     -4.77590497145386
