21
Coordinates from ORCA-job NEB_product E -40.965129886700
  C           1.26577451986616     -1.35661735379317     -1.08806707919416
  C           1.91117533246297     -2.09076093680316      0.07191101216251
  O           1.87052650052905     -0.10023131200737     -1.24774373375907
  H           0.19522295781238     -1.25759818997344     -0.84451739265292
  N           2.42868575376103     -1.10119332114973      1.11425228867805
  C           1.38416412572487     -2.21710590925879     -2.37788344887274
  C           0.62942519628031     -1.57577672789417     -3.51231777589794
  C          -0.43284559728073     -2.11720353477054     -4.07576690721689
  O           2.02423996743661     -3.25771324496742      0.24711101413182
  C           2.77971714105002     -2.34687631413678     -2.74662885960531
  H           0.98667090930982     -3.21534302735969     -2.16135100461851
  H           1.02415482883330     -0.62432066728805     -3.83990758348046
  H          -0.82485631558841     -3.07076161335196     -3.76077905809523
  H          -0.95152335317125     -1.63048373675434     -4.88312015514987
  C           1.03133922507289      1.02262148008149     -1.06058955058168
  H           0.16285678195310      0.98476722660659     -1.72583364734826
  H           1.64374347559262      1.88697050071849     -1.30637864490001
  H           0.69732622881873      1.09582501794292     -0.02059384161777
  O           3.59483701627233     -1.12825933246826      1.38026406800382
  O           1.57204846869894     -0.39637899259489      1.59482007899527
  N           3.87211683656523     -2.43806001077771     -3.06377977898063
