22
Coordinates from ORCA-job NEB E -39.227365230940
  C           0.29102935909161      0.62023507809099      0.85106762147173
  C          -1.01000179500408      0.15715712317187      0.73306749092346
  C           0.57347471059018      2.07393949120034      0.59551049321063
  H           0.91056306601717      0.17218818389794      1.62197345171915
  C          -1.42827191122900     -1.05683773533213      1.55852969345776
  C           1.12244513319754     -0.23119602158052     -0.96651099326163
  C          -0.01402590531132     -0.77863423315661     -1.57851759884056
  C          -1.08896949752488      0.02016837448855     -1.90203606038140
  O          -1.80202439976172      0.49277153405661     -0.18722107918326
  N           2.16982885022441     -1.01997217323415     -0.60459753837044
  H           1.40456316839210      0.77117297230489     -1.25558978827691
  H          -0.16563861744221     -1.84673266195194     -1.48211344108809
  H          -1.98553542043626     -0.42238918216169     -2.30326381690615
  H          -0.93011544120172      1.05553603805434     -2.15771536780779
  H          -0.03782461484443      2.44845117727769     -0.22109019184357
  H           1.62588714323734      2.25167477982161      0.38541616005174
  H           0.31748625120163      2.63959288661720      1.49368321013210
  Br         -1.62485238595299     -0.51664510270549      3.43331094743324
  Br         -3.11024843945841     -1.74667711036597      0.90690463942165
  Br         -0.12417887108265     -2.52214918575915      1.52541014460163
  H           2.94153977505472     -0.59396165968859     -0.11972934016368
  H           1.96486984224297     -1.96769257304578     -0.32648863629961
