17
Coordinates from ORCA-job NEB E -29.279201912980
  C           1.02723286043288      0.35770715637466     -0.44055088479993
  C           0.08383896374638      1.38146741034080     -0.45502145119989
  C           0.94796275432312     -0.68595571191628     -1.52359491777087
  H           2.04235031726817      0.62280358191096     -0.16420235532412
  I           0.59244484008875      3.16975414030324      0.67635046857832
  C           0.34227911095928     -0.55875369619525      1.17093381366520
  C          -0.98915575132433     -0.79514449196516      0.84149280092910
  C          -1.82568162769657      0.33228443101949      0.63204573488765
  O          -1.15244481001032      1.16585052149350     -0.62680487957157
  Cl          1.39561312128211     -1.92306210053684      1.39392449413807
  H           0.58666529676336      0.22786778734027      1.87737116254000
  H          -1.24462257933862     -1.72968303451911      0.36532973477908
  H          -1.79676526782282      1.11202960320334      1.38944515037378
  H          -2.82633517712582      0.13682386258634      0.26902258868834
  H          -0.08209168070076     -0.85215633361773     -1.82829213344360
  H           1.38520291485141     -1.62334838170154     -1.18994478195567
  H           1.51350671430376     -0.33848474412069     -2.38750454451388
