17
Coordinates from ORCA-job NEB_reactant E -29.301596019790
  C           1.87914435844479      0.08332767938973      0.12342355185046
  C           1.51181080724212      0.11349437742831      1.39440053692038
  C           1.82812605966109     -1.14743449083936     -0.72018387736600
  H           2.25227315914257      0.98045940283060     -0.34469810149622
  I           1.64038722726366      1.97904448103622      2.46671224737160
  C          -0.44989185015573     -2.06383301693127      4.90769147431500
  C          -0.26810666172283     -2.13056898704138      3.59975228222059
  C          -0.13014100888384     -0.91440535113218      2.74192913996103
  O           1.14893623925702     -0.95276516037568      2.11881352958076
  Cl         -0.61632365300277     -3.45489209881868      5.89387180868661
  H          -0.52705344435732     -1.13389936104195      5.45125457473484
  H          -0.18048973852464     -3.07946184582782      3.09272771236233
  H          -0.22436733578755     -0.00335489478163      3.34761006461544
  H          -0.91107954131270     -0.90584509515165      1.96692672638127
  H           1.41516183809734     -1.98349287578090     -0.16285610522122
  H           2.83222840949531     -1.40817163076864     -1.05241986481467
  H           1.22058513514349     -0.96530113219372     -1.60605570010220
