19
Coordinates from ORCA-job NEB_reactant E -49.121466540970
  C           2.20600271403132      0.26273881625464     -0.40904563547186
  C           1.49013493502867      1.00235069502459     -1.26416492361980
  Cl          3.09023816648698      0.79384044221012      0.95354671687438
  H           2.25449041885759     -0.80292922326538     -0.58665876515869
  N           0.83749717992184      0.28569839859242     -2.37466483583917
  C           3.92739524313850      3.09468905651731     -1.54872028623343
  C           3.17666807758870      3.47330674253789     -0.52732791389907
  C           1.70331257999826      3.23134155568809     -0.42719069615749
  O           1.19959447578439      2.30570649816607     -1.36825886754076
  C           5.40189889322712      3.33844998584415     -1.60245908004185
  H           3.54138987005822      2.57543111237919     -2.41289698406819
  H           3.60755223260406      4.00675013177629      0.30826089958305
  H           1.17294328979798      4.16327310818583     -0.65393543832303
  H           1.44124617697312      2.92840461894356      0.59253130057598
  O           0.23664557387456      0.95939439393381     -3.16848242158544
  O           0.95765054082139     -0.91648611775342     -2.40809112212146
  F           6.09136496620235      2.18262248476583     -1.61602180335138
  F           5.76189178302382      4.00463477219285     -2.71011136668223
  F           5.86258288258113      4.04368252800616     -0.56080877693959
