23
Coordinates from ORCA-job NEB E -45.279016183850
  C           0.47640215363604      0.99223756923637      0.47136495271406
  C          -0.45866721152194      0.12793833440997      1.04372823721471
  C           0.02679231426335      2.21172419694019     -0.24707223599280
  H           1.38862323748592      1.16226318161868      1.02732432613610
  O           0.00541677511265     -0.56049306765029      2.12282398134102
  C           1.08059272804311     -0.35744465839187     -1.18277253548421
  C          -0.19955191756020     -0.52980870527166     -1.70853855403450
  C          -1.16725901560325     -1.22574306438524     -0.99688833387475
  O          -1.54155508379636     -0.19461825451405      0.48575337796132
  N           2.06547252663304      0.26134701965861     -1.88533125226391
  H           1.44376594243577     -1.06887811322376     -0.45085611788444
  H          -0.51164860063343      0.12827419667895     -2.50581901257866
  H          -0.86882450411302     -2.08144420198099     -0.40861299216257
  H          -2.16905075977214     -1.27288443310201     -1.39094755387078
  F           0.99527940114503      2.70637288579731     -1.05914211646008
  F          -1.05611744472184      2.08241718145764     -1.01362143492400
  F          -0.24626667271804      3.22781204974185      0.60711898594901
  C          -0.83842098335666     -1.56878877999007      2.65286543173309
  H          -0.64000155263266     -2.52777825642540      2.16659452390881
  H          -1.88810271569812     -1.30464393746265      2.51227564992172
  H          -0.60435834204879     -1.64171256287274      3.71306395999565
  H           1.77932050890125      0.96915122906355     -2.54484478982877
  H           2.92815921652031      0.46470019066762     -1.40846649751599
