23
Coordinates from ORCA-job NEB_reactant E -45.302524244330
  C           1.95192155141623      0.05695053536904     -0.10391804139151
  C           1.91222161126288     -1.28970094633159     -0.03071905161024
  C           1.43252917968576      0.95550849271700     -1.14996053651564
  H           2.35588908003836      0.56900678243183      0.75191080810979
  O           2.34959575988545     -1.81505926666650      1.13024575324878
  C           3.64106762786411     -3.07048026011630     -3.23593227071745
  C           2.99817400223857     -1.99783409531166     -2.77358349543758
  C           1.57711385677137     -2.04068882093168     -2.32142060224324
  O           1.47975529951424     -2.20879997743145     -0.89290496856312
  N           4.97945500240757     -3.11704563491394     -3.54280052400826
  H           3.12588166217155     -4.01620032416237     -3.34480157564809
  H           3.51890878690964     -1.05944028176624     -2.65736991864333
  H           1.07293077769079     -2.93135377233679     -2.70262512465255
  H           1.02382428997678     -1.15844018272269     -2.64374891033950
  F           2.16724104132325      0.99644601495071     -2.29326365454246
  F           0.17434514786142      0.67458554675330     -1.56235312477946
  F           1.39765293520950      2.22351101008466     -0.71389306853292
  C           2.39614059537014     -3.22775958877494      1.24344632066057
  H           2.82709274666853     -3.42051200164476      2.22325399984066
  H           3.02401801597275     -3.66492511335437      0.46368537003475
  H           1.39498625252822     -3.65946001127191      1.18273437733259
  H           5.43785983289874     -2.22139583702802     -3.61463425095098
  H           5.26149494433416     -3.78271226754133     -4.24344751065081
