23
Coordinates from ORCA-job NEB_product E -45.319668351800
  C           3.34194368932791     -1.36883616929595     -1.05542905026385
  C           2.60470461506306     -2.34092694314105     -0.12657012809664
  C           2.76894959658878      0.03542660648298     -0.91030334702821
  H           4.38874455292184     -1.32027599128294     -0.73090293175664
  O           2.20964997192408     -1.73841288587084      0.98567328114924
  C           3.33519294250651     -1.90584044232301     -2.51095044240522
  C           2.02651524814946     -1.60515799339476     -3.19938409691511
  C           1.05272111392407     -2.48571813082551     -3.32767862444592
  O           2.43132150672925     -3.50167639937822     -0.37180637577624
  N           4.51163397685868     -1.40254061226006     -3.20119490389008
  H           3.44990022062333     -2.99259241137599     -2.42257002462116
  H           1.93141681136769     -0.60713327546335     -3.60838452899081
  H           1.13885462163285     -3.48001621121726     -2.92196093798870
  H           0.13084163296754     -2.24418423031037     -3.82827346721884
  F           3.17457017512768      0.86331858623602     -1.88837979147572
  F           1.42991838026210      0.06823815844934     -0.93285279378012
  F           3.14870240768230      0.62161857848541      0.23353811832465
  C           1.51260250418676     -2.54292729293306      1.93158948015470
  H           1.29871789642958     -1.89388891056572      2.77595800544986
  H           2.13364016965727     -3.38663638950047      2.23739335806176
  H           0.58858892828897     -2.92195181417043      1.49205433489950
  H           4.42771437834284     -0.40860868540785     -3.38767480125139
  H           4.61845465943747     -1.87487714093688     -4.09109033213505
