22
Coordinates from ORCA-job NEB_reactant E -48.244368872520
  C           1.96394893187020      0.04780566073142     -0.83405283602920
  C           1.54904701133125     -1.23411987474887     -0.79615274329308
  N           1.59375064138874      1.05630034206178     -1.75013386910295
  H           2.67249868200690      0.38488349079163     -0.09224832533968
  C           1.96099232489673     -2.10731392818194      0.37026329357828
  C           2.05529901021951     -0.10538129079758     -4.48013101990635
  C           1.93246563304440     -1.14930785339398     -3.67785237445493
  C           0.65039460451714     -1.54271671977790     -3.01027045341287
  O           0.85640836877704     -1.96745223484666     -1.66455646418341
  C           3.34908933238421      0.30676443380689     -5.11059952466460
  H           1.22282248412271      0.53916767594797     -4.72215850170127
  H           2.78702507547258     -1.77448323903900     -3.45250848503602
  H           0.22523157860810     -2.42691822279782     -3.49576029152755
  H          -0.07376930860805     -0.71996701625668     -3.05056947135240
  O           2.44101362352843      1.87787609883657     -2.04310147105748
  O           0.44859452113578      1.07517027846609     -2.16922564680172
  F           2.45142383277785     -1.37612940849817      1.40846424781150
  H           2.74505397786204     -2.81018122041175      0.06417884643776
  H           1.09105613188159     -2.66574544111171      0.73215888805696
  F           4.33117797973615     -0.60344495265018     -4.90369582907395
  F           3.21723362750023      0.42435348346246     -6.45601654219458
  H           3.70014193554646      1.27863993840742     -4.72193142675244
