17
Coordinates from ORCA-job NEB E -26.138373167040
  C           1.08777515599012     -0.13991067316394     -0.42444239507332
  C           0.44182251003398      0.87682319399805     -1.14314809072244
  C           0.71385581732812     -1.57909476851069     -0.68480891195669
  H           2.15187635475936      0.00172292607290     -0.25389401246789
  H           0.92999371803092      1.85358789609681     -1.22753080814237
  C           0.30378509115033      0.20479489298567      1.27669156386854
  C          -1.07156390663831      0.12290139363894      1.04060174637521
  C          -1.62716513692311      1.05530740166085      0.12646610700955
  O          -0.84399790849671      0.83194744943003     -1.29626874488275
  F           0.85450319100520     -0.73888642959391      2.07438208953997
  H           0.76429550734306      1.16490456208867      1.49803641851397
  H          -1.53517810446746     -0.84570058186828      1.15084485797241
  H          -1.40014357412667      2.10283030449683      0.30489627532480
  H          -2.66131740556176      0.89765787523712     -0.15180942098416
  H           0.89116261554744     -2.20222557166723      0.18811665071132
  H           1.33041489438500     -1.95635736819088     -1.49984272227916
  H          -0.33011881935950     -1.65030250271095     -0.97829060280700
