17
Coordinates from ORCA-job NEB_reactant E -26.169687680530
  C           1.76770014295878     -0.00366366530981     -0.03297836140102
  C           1.09068319527810      0.82946570386546      0.74483183852579
  C           2.09012701520437     -1.41702706065556      0.32391139699058
  H           2.10961290539285      0.35384215416996     -0.99188553662346
  H           0.88159691876408      1.84944700330316      0.44093405131151
  C          -0.31950276951200      1.33033021528442      5.16633397989484
  C          -0.58760694832775      0.88703847422870      3.95441250151058
  C          -0.01238382402915      1.48972999436898      2.71377058955129
  O           0.60472737095381      0.46228936872366      1.96975699409845
  F          -0.86513830978416      0.77658348853803      6.25859598186405
  H           0.32134555158329      2.16449701823248      5.41468431240571
  H          -1.23385165763282      0.03418537297502      3.81299419172010
  H           0.71538194293728      2.27401889783330      2.96816144783197
  H          -0.82223116896927      1.94646920010442      2.12117068653219
  H           1.71786362791356     -1.64456553253293      1.31797423388146
  H           3.16761928695382     -1.57738809196860      0.29937292298993
  H           1.63615672031521     -2.10185254116069     -0.39204123108399
