14
Coordinates from ORCA-job NEB E -28.920890314430
  C           0.10857436561506     -0.57854934174650      1.11394422862838
  C          -1.26020312649201     -0.23684193002739      0.85804709160327
  I           1.09873971720002      1.05477912306674      2.20948956161450
  H           0.21468302373144     -1.45318777255977      1.75076913922963
  Br         -2.63417086732168     -1.50615486909052      1.15372761135808
  C           0.81174778659609     -0.80842186335610     -0.28119560218326
  C           0.53038297652256      0.30417586252553     -1.14113836870767
  C          -0.62724542267426      1.18681964636520     -0.89464970295461
  O          -1.59936286707714      0.74507140047536      0.02567303136067
  I           3.02698535814768     -1.18983112908850     -0.05708911180976
  H           0.48863367529524     -1.79426591732706     -0.60964639622440
  H           1.31847114982091      0.75812472582537     -1.71812212772867
  H          -1.20280917491527      1.33131009730470     -1.81743172624345
  H          -0.27442659444865      2.18697196763294     -0.59237762794270
