21
Coordinates from ORCA-job NEB E -48.305802572120
  C           0.22180528431521      0.04467126636433     -1.02567120920089
  C          -1.14011993723795      0.51221640431085     -0.77778163790314
  O           0.22858186638050     -1.13449242030923     -1.73564543514002
  H           0.87978427075313      0.80975517520086     -1.45458127888104
  C          -1.47855145659448      1.91811383844799     -0.81007332851556
  C           0.81346391688762     -0.24254412006020      0.54327102538185
  C          -0.08198447136555     -1.21209684326610      1.10600481943370
  C          -1.45174663105129     -0.83073239284179      1.22719646620457
  O          -1.95884474728856     -0.28205208956899     -0.15368682852389
  C           2.27147645185970     -0.66997395876808      0.45538689653277
  H           0.77288267471758      0.74832042670455      1.00335086849891
  H           0.17620930119678     -2.25749514177845      1.03628115281875
  H          -1.63067919337902      0.04642218089515      1.85274736852844
  H          -2.14452529918299     -1.63380543963722      1.45547978312131
  H           1.13103284624701     -1.43892384433770     -1.89468105152051
  Br         -0.69430547887215      2.94438455764775     -2.21074643160219
  Br         -3.35970108885431      2.21014691590570     -0.70123604749177
  Br         -0.69954312929222      2.87492301424763      1.07407786827884
  F           2.41580383116864     -1.88212050221607     -0.13467462768490
  F           2.98357149225844      0.19609061466537     -0.30234043570879
  H           2.74538949733391     -0.72080764160634      1.44732206337357
