21
Coordinates from ORCA-job NEB_reactant E -48.336283388200
  C           2.17416390959320      0.43461218716817      0.42332449139658
  C           1.62695826319269      1.06416915980206      1.46797385431322
  O           2.45997090841165     -0.89757386192847      0.39330243965541
  H           2.40421735483210      0.99772740204745     -0.46928599892147
  C           1.29584312956994      2.51493096578113      1.46760725034783
  C           3.91872383118302     -0.20470540500386      3.37501313120686
  C           2.97250514537189     -1.09933186184464      3.14064220018922
  C           1.51682119771262     -0.77614684806458      3.00254150696003
  O           1.25314128187357      0.57669188694172      2.69040134608297
  C           5.36787883645577     -0.56267749491007      3.50466750468575
  H           3.70593739670269      0.84245982103505      3.53016041492437
  H           3.22125808627209     -2.14305096937873      3.01606667462559
  H           1.01300592806455     -0.93178220196158      3.96302377965260
  H           1.05805559986231     -1.43464570947213      2.25822878698701
  H           2.96113268598195     -1.11148463497467     -0.39999778011713
  Br          1.65462100881440      3.45829947085484     -0.17076996786822
  Br         -0.60693111770582      2.73405891824777      1.88711710453136
  Br          2.31258828984492      3.39652125593568      2.89842322332338
  F           5.74297216512356     -0.59001617364995      4.81200813004358
  F           5.63482863624968     -1.79762410139855      3.01330016974810
  H           6.03330746259323      0.15186819477334      2.99215173823294
