21
Coordinates from ORCA-job NEB_product E -48.331421874100
  C           3.12907850499689      0.29160869245593      1.26180970292271
  C           1.70013877424396      0.82108261745489      1.19544916429271
  O           3.27048405972040     -0.80586394896075      0.41061104216066
  H           3.85615249884953      1.08454583243757      1.03062410389726
  C           1.54642382279593      2.33456395655257      1.07515858942771
  C           3.35444417241958     -0.17958210717613      2.72506690261045
  C           2.53030093919682     -1.39884914538866      3.01810743152160
  C           1.60058526651146     -1.43763638510195      3.95253715109897
  O           0.72815110217347      0.12707314323068      1.18763003306008
  C           4.84418299581172     -0.45999308559511      2.95578442192144
  H           3.09120074918855      0.63524838583954      3.40817781403062
  H           2.73970236636089     -2.24550217048741      2.38258055210141
  H           1.37982696433337     -0.58810852630436      4.57932026991464
  H           1.01837370943825     -2.32423408429675      4.12901236289119
  H           3.35428254297963     -0.52128337398483     -0.50599000418870
  Br          2.19238531748692      2.76985607724901     -0.72284919819617
  Br         -0.31565019422067      2.82244587960793      1.23010756011307
  Br          2.59373675510786      3.30527091545266      2.38831580846129
  F           5.34122832133387     -1.38162995376138      2.11188649899053
  F           5.56699809623070      0.67118931387248      2.75155722385556
  H           5.03577323504087     -0.80080203309595      3.98520256911296
