17
Coordinates from ORCA-job NEB E -36.981251492570
  C           0.73513722756339      1.53632371112750      0.43384796150877
  C          -0.00328199469381      0.27614111213275      0.59716207460057
  I          -0.30936760567738      3.24267541485607     -0.06193237805056
  H           1.66903943942650      1.67426590845383      0.95201874135592
  N           0.25003785118678     -0.29588389540679      1.99610748846484
  C           0.66118307905963     -0.61933282216899     -0.48235150079467
  C          -0.46642350384384     -1.13522226902380     -1.22189922571157
  C          -1.72334561624981     -0.70582140549507     -0.54929703719463
  O          -1.35720709449535      0.33054869155638      0.36278409251465
  C           1.47728489388808      0.30629907868856     -1.32245582741717
  H           1.36251375016036     -1.30817566119329      0.00431822258835
  H          -0.43065542970278     -1.32233852378980     -2.27992425131530
  H          -2.20074948920042     -1.52809944932073      0.00750507943545
  H          -2.46376332135034     -0.29463080181328     -1.24198849726816
  O          -0.60814042241240     -0.12480424918619      2.81443196628732
  O           1.32467121804073     -0.82804307438983      2.15519801544525
  N           2.08306701830068      0.79609823497267     -2.16352492444905
