27
Coordinates from ORCA-job NEB E -35.931387098140
  C           0.34108331326833      0.04292270596056      0.94027308501651
  C          -0.93613718257078     -0.55927250380685      0.84297374764087
  C           0.40319151722965      1.40130939180606      1.34496121191166
  H           1.13749000469769     -0.55837741676495      1.37111067261388
  C          -1.07846726317189     -2.05386499530533      1.00380789660723
  C           0.77370614727473      0.17386834161930     -0.95255242964889
  C          -0.29435493938877      0.95410901521395     -1.41383594671319
  C          -1.59356358055726      0.41508155311024     -1.34633311932417
  O          -1.89562413324367      0.10049570008415      0.29734296852932
  C           2.21261220383178      0.63453774693336     -1.06273709812456
  H           0.68914213039698     -0.89474041145812     -1.14564018475599
  H          -0.19426535203099      2.02821143856919     -1.39821218666383
  H          -1.73607327594307     -0.59981325401855     -1.70560635167009
  H          -2.42000029423681      1.07053928991542     -1.58372948500394
  N           0.44379066761674      2.48362716947137      1.71791738328907
  C          -2.20829825907916     -2.38161551106983      1.97993907656987
  H          -0.14139108245561     -2.49152736886014      1.35082880567907
  H          -1.32415203343013     -2.48374815479792      0.02578347480032
  H          -1.96578889241179     -2.01663299200187      2.97535760675214
  H          -2.36832491089793     -3.45588858936609      2.03114998280568
  H          -3.12799741208264     -1.90310408320573      1.65283224975835
  C           2.42137503334584      2.14058231144578     -1.16537150217173
  H           2.62384394344571      0.16247157795127     -1.96168953270313
  H           2.78703445321270      0.24848849633607     -0.21714015999120
  H           1.97285945736417      2.52983448444325     -2.07577163320501
  H           3.48705537438450      2.35619439739190     -1.19356963859442
  H           1.99125436543168      2.65631166040350     -0.31208889340383
