27
Coordinates from ORCA-job NEB_product E -35.977150247930
  C           3.45965254200488     -0.98093430889669     -2.00669503610585
  C           2.38711555773248     -2.03312997390723     -1.67928641039087
  C           3.78487185805908     -0.17808820314837     -0.85983988642556
  H           4.36209359059100     -1.52024807729399     -2.32112090704606
  C           1.32375036949726     -1.59010055715936     -0.71272204688917
  C           2.94846562882105     -0.14557206755237     -3.21656925795475
  C           1.97091394818894      0.90754311752887     -2.78821141900450
  C           0.77715933703999      1.06310292058426     -3.33069661644314
  O           2.41558662000024     -3.11012084070161     -2.21216936157678
  C           4.11686371690104      0.46742348909472     -4.01082976116609
  H           2.44031367233772     -0.84621708878051     -3.89053261763268
  H           2.30556744832988      1.56807238352314     -1.99946047005788
  H           0.42118133863486      0.41478678219371     -4.11539879521582
  H           0.10604782062222      1.84424885390657     -3.01698633561738
  N           4.04341424277150      0.43099060732355      0.07408643803713
  C           0.20255314945665     -2.61145246391009     -0.57910358650009
  H           0.93636367079301     -0.62342542272163     -1.04782194155641
  H           1.80708228004745     -1.42192182049059      0.25450467007014
  H          -0.29040185956551     -2.75661220283048     -1.53717976687193
  H          -0.53247829533224     -2.27440866801812      0.14665128425452
  H           0.60287232229233     -3.56933269168174     -0.25712420046518
  C           4.96120996874462      1.47474745447652     -3.24073096239761
  H           3.69225877693025      0.95747614163982     -4.89048537364470
  H           4.75742576456490     -0.34469370219741     -4.36481226054040
  H           4.36601983548839      2.33050146169867     -2.93371776594592
  H           5.76756983420828      1.83476648202128     -3.87574083987070
  H           5.40322686083970      1.02769839529908     -2.35370677304233
