21
Coordinates from ORCA-job NEB_reactant E -33.512860239410
  C           1.52354036789781     -0.02246760702063     -0.26268001930454
  C           1.98522336243361      0.12816611689531      0.98028112479446
  N           0.76796722134315     -1.11543679683327     -0.68371319267865
  H           1.80958086442882      0.68449613298238     -1.02406417724880
  O           2.89448562871011      1.12383435726315      1.27269885419067
  C           4.21014097160052     -1.07111216050722      4.02528291020250
  C           3.87834719081052     -1.22924272616308      2.75115167318536
  C           2.54789175576299     -1.75229711880333      2.31267087251811
  O           1.60861118401884     -0.70865375283217      2.00848990146547
  O           5.37475809942360     -0.55905955728667      4.48293331577218
  H           3.56349597208316     -1.36738550841422      4.83928320460150
  H           4.54754572719887     -0.90095206909552      1.96656181228653
  H           2.06701217098903     -2.31745382041442      3.11430617685288
  H           2.66485272713036     -2.39051651932770      1.42710326225646
  H           0.36482399431615     -1.62018633861824      0.09533466014535
  H           0.07722146025543     -0.88812527769760     -1.38425605800635
  C           2.57248317688270      1.90536801968663      2.40859175740764
  H           3.42318938599284      2.56335469426451      2.57404524672671
  H           2.41438627779758      1.27668972607029      3.28917297988347
  H           1.67287989131926      2.50253936455796      2.22661453883361
  H           5.92216256960464     -0.28145915870615      3.73679115611541
