21
Coordinates from ORCA-job NEB E -33.378425725810
  C           0.15881761690598     -1.24334749677335      0.06138550063240
  C          -1.18194800048271     -0.86077452929946     -0.11451049417112
  O           0.58917792434431     -1.62437670408519      1.29149546578162
  H           0.66586101752649     -1.79424648075756     -0.72093137400997
  C          -1.77051806695607     -0.75187351841308     -1.50418040433861
  C           0.91006061676307      0.59276427613262     -0.13154192091716
  C           0.28029881941555      1.22816372153589      0.93980719498935
  C          -1.10985598505868      1.42735692950022      0.91018294455806
  O          -1.74305614542311     -0.19407027471710      0.83958605101999
  C           2.39092171762129      0.33858122459783     -0.08233377818515
  H           0.53299731660011      0.80336738040572     -1.12692114685867
  H           0.77132117635800      1.19501194744046      1.90354410926746
  H          -1.55532310080302      1.78865322682103     -0.00915241523295
  H          -1.59428652066760      1.80151859517583      1.80040720415060
  H          -0.03021975606019     -1.25947841116508      1.94376342217674
  F          -0.97583199973739     -1.35707412070325     -2.44211085210342
  H          -1.88339925787491      0.29923752224926     -1.80599573364280
  H          -2.75100151466993     -1.23934178965527     -1.54004354981732
  H           2.70442337847604     -0.29305966551554     -0.90915451044876
  H           2.66698406156359     -0.14270503542606      0.85284790355550
  H           2.92457670215917      1.28569320265210     -0.15614361640580
