21
Coordinates from ORCA-job NEB_product E -33.407936135710
  C           3.24309433194308      1.00773299351902     -0.81491859490048
  C           1.74816454568371      0.71709691408854     -0.87005699206899
  O           3.83427094850999      0.19394609680836      0.15339550159314
  H           3.69670450246878      0.77047874005787     -1.78844524723830
  C           0.97243828698188      1.40936415852598     -1.97186246621355
  C           3.48202147727773      2.51901547687729     -0.52165284633655
  C           2.74470432866472      2.91578737212389      0.72170934282067
  C           1.82155117679035      3.85662564769152      0.77659117491295
  O           1.24314479077379     -0.01375980928269     -0.05866607848998
  C           4.98202753885873      2.76422895635728     -0.35467920161596
  H           3.11404446054103      3.09670623038892     -1.37530175731254
  H           3.02886818624123      2.36982596241448      1.61059583821995
  H           1.53214394849688      4.42542825506910     -0.09324478242644
  H           1.32160070401274      4.11071810820009      1.69489484515142
  H           3.11306679397899     -0.21784698745157      0.65977668109791
  F          -0.29080972175710      0.90588749815435     -2.07900517846324
  H           1.46332475543093      1.27944973855726     -2.94228861440336
  H           0.87602026469943      2.47615342930117     -1.73791486622501
  H           5.37579579033055      2.11679708933978      0.42364907220424
  H           5.16064298479491      3.80085605791756     -0.08044960527315
  H           5.50617990527766      2.54840807134181     -1.28242622503273
