16
Coordinates from ORCA-job NEB_product E -31.439968215760
  C           2.60348084908127     -0.03225999517461      2.35193867318298
  C           1.24963048344799      0.69005092555876      2.17677589766450
  Cl          3.49781977435617     -0.19243189460965      0.80356268747739
  H           3.23028521090518      0.56605434496931      3.02040566164499
  O           0.91501752701623      1.03739731492539      0.95064108996347
  C           2.33383248721243     -1.41240850270513      2.98446442454167
  C           1.46204143219802     -2.26829871720311      2.09818875239811
  C           0.22891408635763     -2.60939378471758      2.41520619159826
  O           0.56304452084253      0.89654884283152      3.13415574187050
  C           3.58636424275831     -2.09015510076471      3.24196702803843
  H           1.82502486658528     -1.23155124176681      3.93970992236092
  H           1.91570256884088     -2.58449847041096      1.16897611948697
  H          -0.23096160174631     -2.29644702830131      3.33795583414603
  H          -0.37405470232232     -3.21095642569843      1.75757760236068
  H           1.60194831600133      0.78002002207054      0.30401428865502
  N           4.58250993846538     -2.62367028900320      3.40686008461009
