18
Coordinates from ORCA-job NEB E -41.693885129600
  C          -0.76397051604448     -0.40635046510662      1.21040927558801
  C          -0.21117130658239      0.82891755288477      1.56366873908180
  Br          0.14030729900837     -1.93819452749362      1.85016993225800
  H          -1.83881715838010     -0.51535070152507      1.22525325604288
  O          -1.05571489002575      1.89089983993820      1.52189511038596
  C          -0.24450086007377     -0.24918239422757     -0.77150669044245
  C           1.13764541914406     -0.12496545620980     -0.67040333956455
  C           1.66125178665981      1.03110240260943     -0.05520170407839
  O           1.04654349305077      1.02773431098394      1.55098299312393
  C          -0.85048795954437     -1.39878239293112     -1.52297950089495
  H          -0.83193701754633      0.65356621628043     -0.91898414184329
  H           1.74188376132314     -1.01904820987477     -0.69238664743353
  H           1.25007116685076      1.98790747795630     -0.35959770222567
  H           2.72334706588096      1.05614886031069      0.14156813882934
  H          -0.55198187848626      2.71007062146031      1.63193082839599
  Cl         -2.55782666283998     -1.65787808686373     -1.09278658261834
  Cl         -0.81208454469223     -0.95003931735577     -3.26818605552476
  Cl          0.01744280229781     -2.92655573083600     -1.34384590907998
