18
Coordinates from ORCA-job NEB_product E -41.743615335210
  C           2.12083639857500     -1.53813224308874     -1.86813365742651
  C           0.62853480027287     -1.86672733248061     -1.71476569254976
  Br          2.38103319842131      0.02487754033987     -0.70524311224607
  H           2.76042319106988     -2.32020432752374     -1.45053065630437
  O           0.30072282634668     -2.48126642996375     -0.58175914557303
  C           2.49441300467921     -1.23269824330410     -3.32161339392311
  C           3.60278051987254     -0.22269749917876     -3.44854437053316
  C           3.48263887716025      0.89522278871278     -4.13750397796626
  O          -0.18366586553649     -1.55500697933719     -2.53148689957933
  C           2.89952975009221     -2.53352967547005     -4.02364357950129
  H           1.59414326698960     -0.85499332352868     -3.82461995683919
  H           4.51911935877167     -0.46776598712068     -2.93082171264109
  H           2.57344543389005      1.15106835155693     -4.65605303670495
  H           4.28954124985964      1.60341267415936     -4.20287364318907
  H           1.03789630091567     -2.61292634741376      0.03156563889665
  Cl          1.62704732695868     -3.77681761275344     -3.86333818961040
  Cl          3.17565058791208     -2.22349475706479     -5.74780197921252
  Cl          4.39850977374916     -3.20162059654065     -3.32783263509653
