22
Coordinates from ORCA-job NEB_reactant E -56.686790284930
  C           1.89058177990643     -0.01063842418270     -0.44008141487327
  C           1.60284795762649     -1.30552155557521     -0.27298288518469
  C           1.42595700690130      0.92958721244389     -1.50800009398939
  H           2.52474438641419      0.42814034036290      0.31686930542915
  N           2.18850618757768     -1.94977244890797      0.94792900017769
  C           1.79098390897969     -1.83816634384040     -4.40111326288683
  C           1.70059944375159     -2.32982903428806     -3.17725924960275
  C           0.52583201096399     -2.11737248210087     -2.27425423711255
  O           0.89137399196539     -2.22378533469155     -0.90512667716919
  C           2.96059876281195     -2.11092848530803     -5.29364772058019
  H           1.03249817850534     -1.21614646344228     -4.85008098090477
  H           2.49073049494490     -2.94559925537846     -2.76703968002241
  H          -0.18416805653948     -2.94057810743579     -2.41237242647086
  H           0.00971708532553     -1.18022360337094     -2.49139441234679
  F           1.92713563371051      0.61131746121754     -2.73167419514536
  F           0.07312052405822      0.90489999672609     -1.65481467289598
  H           1.71484831025919      1.96731996481873     -1.29132624046819
  O           2.08575685424657     -3.14267701423548      1.01826144127747
  O           2.71602755485930     -1.22631125152892      1.75390340729540
  F           3.98379036552874     -2.70068962383059     -4.66190721262159
  F           2.62643264299779     -2.92187985088378     -6.31575478542880
  F           3.44158497520469     -0.98934569656812     -5.84803300647608
