17
Coordinates from ORCA-job NEB E -38.638650248700
  C          -0.07665798357884     -1.22851838400920      0.87606867372391
  C          -1.01816009595597     -0.43742113648849      1.53532902871372
  Cl          1.53628596714747     -1.22683007437770      1.50157754761887
  H          -0.38367153945489     -2.19206129657386      0.48575914881192
  F          -2.32299922811026     -0.75936049385067      1.22047596389700
  C           0.01290955040415     -0.03601737889549     -0.76336695545364
  C           0.34532050362317      1.19012311060831     -0.19950335584453
  C          -0.60093128077224      1.82412747943573      0.63365171470369
  O          -0.81798399559053      0.73304261836571      1.93156034496211
  C           0.97866340322259     -0.71743679273818     -1.70219681445357
  H          -1.01548760833997     -0.21587692065768     -1.06069210143420
  H           1.39139041857077      1.43347732783281     -0.08407758518630
  H          -1.63112244367260      1.85209492435921      0.29597435363401
  H          -0.29051694919416      2.71357390712288      1.16319491739303
  F           2.26683613411809     -0.56304872616201     -1.33547913061451
  F           0.74805652403791     -2.05094904024156     -1.77009325100150
  H           0.87806862354533     -0.31891912372980     -2.72818249947000
