17
Coordinates from ORCA-job NEB_reactant E -38.667855927710
  C           1.83670280918809     -0.32600771373255     -1.17195981121059
  C           0.93910795028981      0.54902466382187     -1.61710527927352
  Cl          3.53799676338115     -0.08152066970482     -1.04009354771648
  H           1.50056209813018     -1.29998394528735     -0.85933107532847
  F          -0.33892522217625      0.12665923387680     -1.64209542081977
  C           2.73722935032616      1.15738284627143     -4.20953562570550
  C           3.09331151597721      2.00808053700417     -3.26252581022869
  C           2.19341433354034      2.49937931178639     -2.17055439241820
  O           0.96467569474249      1.80394000461493     -2.06588168415636
  C           3.66608015698039      0.68357552285132     -5.28490423767468
  H           1.74072435262844      0.74789216208643     -4.28394490774094
  H           4.09544923323974      2.41148334222820     -3.23312399547406
  H           1.89919257793107      3.53291117707810     -2.38532207079197
  H           2.72524148022937      2.48776549537573     -1.21268005223535
  F           3.13728351108382      0.92376062974581     -6.51326645856463
  F           4.85875813567834      1.32215133336314     -5.25378125189279
  H           3.86579525882964     -0.40079393137960     -5.22419437876799
