17
Coordinates from ORCA-job NEB_product E -38.687750089240
  C           2.04059983894181      0.07756936038120     -2.31498403233026
  C           0.82077431786338     -0.71007545804773     -2.70540399470442
  Cl          1.59067930467625      0.77389603956826     -0.71526067163359
  H           2.89706954134750     -0.58115708855330     -2.14717342830675
  F           0.77687853690566     -1.88884905242182     -2.04755595325996
  C           2.36747861376776      1.20753616676984     -3.29398241042190
  C           3.51276048932526      2.03730342069968     -2.77768563148497
  C           3.43371159401182      3.33519722371675     -2.56318927916145
  O          -0.04376840236960     -0.41195455282099     -3.44986784132216
  C           2.73504860650406      0.60537747365310     -4.66030145305151
  H           1.48169920695216      1.83307264777767     -3.44116576822438
  H           4.43090153643718      1.49282341906572     -2.60723914759851
  H           2.52541343580803      3.88756166681900     -2.73791329672568
  H           4.27629385471342      3.89817525122810     -2.20279426140398
  F           3.14428746984638      1.57354549062232     -5.50538096047225
  F           3.77102142742163     -0.26084988260464     -4.53759953772066
  H           1.90205062784730      0.06872787414683     -5.13880233217758
