16
Coordinates from ORCA-job NEB_reactant E -36.116503814930
  C           1.89227088292591     -0.07077450592636      0.07770893178299
  C           1.19341242291142     -0.64571157706945      1.07639019394356
  N           2.12929804179302     -0.70136128261996     -1.17077874129064
  H           2.31548017531861      0.91505193480686      0.17208871924022
  Br          0.96775560619957      0.37772790223168      2.67762817461328
  C          -0.39788549634724     -4.83711382272444      2.41110585228849
  C          -0.50139161786272     -3.77702664324873      1.63288969435264
  C          -0.08673787161198     -2.40618502029156      2.06989149621240
  O           0.67695111110669     -1.83986944666481      1.01416174242172
  I          -1.01886302034728     -6.74896181881184      1.82443997361669
  H          -0.01063302573103     -4.80077808665083      3.41615177692378
  H          -0.88010743644733     -3.83770944468201      0.62382003820189
  H           0.50646148003348     -2.44562268031914      2.99197361446207
  H          -0.97745781838034     -1.78561020452240      2.24878176681074
  O           2.78823962968484     -0.06662099168788     -1.96912016125350
  O           1.67080693675438     -1.80683431181913     -1.36893307232634
