16
Coordinates from ORCA-job NEB_product E -36.124919175180
  C           1.69244680094928     -1.75984537956232      0.72214203941860
  C           1.07006492621766     -0.43844253660244      1.11363388274745
  N           1.52303007024578     -1.89546493307654     -0.77009653154422
  H           2.77250261988146     -1.72639873338901      0.91022864032049
  Br          1.63450898137889      0.10553149705995      2.90124095204053
  C           1.02655775438542     -2.86503682446639      1.54872099985341
  C          -0.46345977964991     -2.82659419156239      1.51187192289173
  C          -1.19413633305615     -2.70614933827162      2.60584512114088
  O           0.30935907362418      0.22221100702520      0.50531972482610
  I           1.75945695330913     -4.81630037218326      0.88978441231609
  H           1.38146300036304     -2.77797743746540      2.57810920562414
  H          -0.91860671585963     -2.91675496455268      0.53637653605142
  H          -0.75105039085115     -2.62715842211806      3.58599806714488
  H          -2.26821335022944     -2.67740695996515      2.56098010911632
  O           2.25981097908172     -1.20738082287736     -1.42136832061631
  O           0.68336541020973     -2.64463158799252     -1.17818676133151
