17
Coordinates from ORCA-job NEB E -40.717312881280
  C           0.11530516219722     -1.40322482500201     -0.57418259067820
  C          -0.89268890207357     -1.70155196731520      0.35765614380612
  Cl          1.74312620558939     -1.82408477172529     -0.11975569036277
  H          -0.08232905327441     -1.61922737243737     -1.61880161599454
  Cl         -2.52178351853746     -1.75006138027583     -0.33342295224162
  C           0.03465844785984      0.54891545347886     -0.40382722667257
  C           0.18947870856832      0.74277118507051      0.97434271999367
  C          -0.80788543339345      0.24012964090102      1.83919976363469
  O          -0.78648385906156     -1.41704716886816      1.58058880103017
  C           1.01005710527459      1.19396481401298     -1.34199260937284
  H          -0.97849318748760      0.62578430703456     -0.79970257975377
  H           1.18055635735538      0.90734059229467      1.37233984596391
  H          -1.84334490337992      0.42805210668440      1.57091269577369
  H          -0.61676728162171      0.30231672104075      2.90172013248248
  Br          0.45329396266688      3.08704827032920     -1.51520311507132
  Br          2.85325535940746      1.20144476182494     -0.75332554735133
  Br          0.95004482991060      0.43742963295197     -3.13654617518576
