21
Coordinates from ORCA-job R E -39.906896918590
  C          -1.42826025097100     -0.04532871347289     -2.72304011451634
  C           0.12334780831293     -2.56844036417194     -2.10483118188305
  C          -1.17824637150198     -2.37927921166287     -1.91206766684944
  C          -1.93461754010409     -1.21850891423875     -2.34475169986174
  C          -0.36230907037319      2.07532535524042      0.17443597256921
  C          -0.10870895252142      0.91009978658215      0.74351038074663
  H          -1.75965166065489     -3.14449593153995     -1.41490227265668
  H          -3.01185341044671     -1.33745025877731     -2.33013074383673
  C          -2.29368608454938      1.09848452906059     -3.13506104646338
  H           0.61536808720401     -3.45737389807218     -1.75060784824322
  H          -0.36884001844333      0.16063794680414     -2.73431288484110
  H           0.74047548883010     -1.84846226098529     -2.61391925462635
  H          -0.98341690288702      2.81741572730097      0.64111075962065
  H          -0.46520212880908      0.58687365962183      1.70916572336287
  H           0.04066825258588      2.30626988148367     -0.80017515665652
  N           0.71528745851334     -0.07316585672724      0.09466164664000
  F          -2.23756287056213      2.10615743871643     -2.20807971438058
  F          -1.85837971856745      1.66036120558792     -4.29067815237834
  H          -3.35472460957020      0.83036622660365     -3.26593769042986
  O           0.85667350735767     -1.12858340233297      0.67574482312516
  O           1.20765898715791      0.19570705497962     -0.97934387844118
