17
Coordinates from ORCA-job NEB E -29.565591237510
  C          -1.09149515349027      0.39565133814170      0.61261624560917
  C           0.01833342555147      1.23122039180682      0.45762095783663
  N          -1.13146077233613     -0.61428699932786      1.56161747952516
  H          -2.05188567934505      0.78601874132073      0.30226122101109
  O          -0.15390112421579      2.32135366349139     -0.35874935429648
  C          -0.50231565164873     -0.71699077024926     -1.08510360162806
  C           0.73638198287108     -1.17778793095432     -0.69357942695780
  C           1.77735352173978     -0.24126610378843     -0.55296534662449
  O           1.20319152154935      0.83024294615062      0.71682829770403
  I          -2.09669141657684     -2.09392377666011     -1.26376508499869
  H          -0.60115881191349      0.09313154748112     -1.79228933910770
  H           0.79835229793955     -2.10457397722239     -0.14326683288056
  H           1.88793006376813      0.51059602803892     -1.32584577718722
  H           2.71264776203531     -0.57823148302355     -0.13182340666623
  H          -1.95005126723701     -0.63670362569881      2.14665659573761
  H          -0.26390434345971     -0.73207034079409      2.06474582024227
  H           0.70867364476835      2.72762035128753     -0.51495844731873
