17
Coordinates from ORCA-job NEB_reactant E -29.585681365230
  C           1.36359029193857     -0.07936254243607      0.11817581828411
  C           2.36449382453039     -0.33464358523462     -0.72598942661783
  N           0.01423133921234     -0.02629941478692     -0.26871542992025
  H           1.56599705144873      0.20917846671297      1.13806464731174
  O           3.69682305169838     -0.27661522462981     -0.38373321534592
  C           3.08429227927839     -3.79066313903647     -3.04761733857882
  C           3.27579235922487     -2.74720166801294     -2.26772108198068
  C           3.12464353823512     -1.33125645671166     -2.74406232369677
  O           2.11064354562832     -0.64141287324084     -2.03685186961241
  I           3.28988684646303     -5.77754260125571     -2.38426617598526
  H           2.82329170856666     -3.71761795134158     -4.08973187561096
  H           3.53234028381769     -2.85733827791182     -1.22372099555752
  H           2.80856406155464     -1.29870747498122     -3.78921585001814
  H           4.08289337968540     -0.80827287308808     -2.63330038013599
  H          -0.60233557064171     -0.47884242820618      0.39443154026110
  H          -0.10893413973306     -0.40524371553519     -1.19910908193860
  H           3.77328614909223      0.06434175969614      0.51186303914218
