17
Coordinates from ORCA-job NEB_product E -29.608095015610
  C           2.87071429678214     -0.89479618873715     -0.49789846078330
  C           1.43697727714352     -1.26110032977349     -0.07090901493772
  N           3.00188139419109      0.49844792472733     -0.84894303568616
  H           3.56904159598144     -1.11832029447657      0.31952669541823
  O           1.29926109321005     -2.42035215060324      0.58951889235924
  C           3.21176327716383     -1.78370770273474     -1.70490789295064
  C           2.27435221654963     -1.60581569751874     -2.84307174407750
  C           1.57694006288610     -2.59683094431268     -3.36829590207167
  O           0.49803810570558     -0.56519383165768     -0.32281822814864
  I           5.23335315277565     -1.28157788616125     -2.35744554875401
  H           3.26161616496921     -2.83391345073539     -1.40996062203416
  H           2.19670151334125     -0.60180133027511     -3.23371581643688
  H           1.65036443300003     -3.60755119016123     -2.99937703451035
  H           0.89852036701820     -2.43597392498921     -4.18713028262043
  H           3.04278574799183      1.08398384165847     -0.02350527474788
  H           2.19613471149821      0.79481050678226     -1.39182060463676
  H           2.13715458979226     -2.87240735103158      0.75595387461863
