18
Coordinates from ORCA-job NEB E -32.857116663340
  C           0.20797991476177      0.14135274057131     -0.95957538630003
  C           0.26871160548320      1.49086819238045     -0.60089473345724
  O           1.30261357187139     -0.63041032569971     -0.75709139831115
  H          -0.40238050788991     -0.12067663806524     -1.82133702775122
  Br         -1.23335342581002      2.51513193236619     -1.38909815032270
  C          -0.96928302194550     -0.43502230914607      0.69142956545345
  C          -1.11600967467459      0.66878412962610      1.51432709716512
  C           0.04182126744426      1.30432613399909      1.96717021747786
  O           0.77001035194129      1.95791599801450      0.43166274582246
  I          -2.69372632903060     -1.36496548696053     -0.11176505549060
  H          -0.19889732538467     -1.15429777907602      0.92905600863636
  H          -2.03642307495531      1.23645948308929      1.47455475260356
  H           0.90922921936153      0.70399742070972      2.20394508230566
  H          -0.05291051392298      2.21625552349192      2.53655297339950
  C           1.29050960882896     -1.88684160252460     -1.40535937316655
  H           2.27404836395146     -2.32128260114722     -1.24052188175973
  H           1.11307395320142     -1.77495638975306     -2.47864907045594
  H           0.52498601676830     -2.54663842187613     -0.98440636584880
