19
Coordinates from ORCA-job NEB E -45.036993045820
  C           1.08148225099417     -0.23561884611125     -0.34435251917873
  C           0.64714522729452      0.09135312924912     -1.64870175931805
  C           0.80941694447424     -1.64475781657729      0.14736930937839
  H           2.10188170280081      0.03965917847317     -0.08720909295122
  H           1.22624033253417      0.82127320867103     -2.21745622671189
  C          -0.04849187221180      0.86667934916869      0.66105215684695
  C          -1.34539622892265      0.52471706376419      0.24271878928806
  C          -1.66553936616127      0.69421705850179     -1.13281619997022
  O          -0.57555345141719     -0.13022831016183     -1.99658231355493
  N           0.28021424058528      0.64027850571379      2.08115563663934
  H           0.39013265135216      1.81178759892537      0.35005534366651
  H          -1.88696991604060     -0.19974604284534      0.83350237904152
  H          -1.50435153472411      1.68609477876269     -1.54818347396652
  H          -2.60443843572698      0.26006350666458     -1.45480988793699
  F           1.55575439391444     -2.50893481265933     -0.56157858911324
  F           1.17021250338733     -1.81012917785529      1.42707036080893
  F          -0.45278009624076     -2.05277598334350      0.04097354089906
  O          -0.49837704720247      0.01946969125407      2.75294363122241
  O           1.31941770131073      1.12659792040530      2.45484891491060
