19
Coordinates from ORCA-job NEB_product E -45.082035209670
  C           1.55562028610355      1.38295111914703      1.91460296487254
  C           1.66915120887755      1.76045602669850      0.44342169781096
  C           1.16306130797436     -0.08699110437090      2.04815412376482
  H           2.56666661051282      1.47297183985653      2.34968293980753
  H           2.10235191473871      0.96196591270180     -0.18095077858785
  C           0.63129988295105      2.34184938986207      2.67820023301008
  C          -0.81689390414724      1.94628163248237      2.69541268196451
  C          -1.71039171577280      2.47547209041405      1.88181682982931
  O           1.34612507704017      2.82010761405468      0.00301501835120
  N           1.12858879268537      2.53108971762027      4.08492916536875
  H           0.73296491726237      3.32501556515001      2.19413635959275
  H          -1.09178957242670      1.19164968635491      3.41833616476148
  H          -1.44764428781093      3.23048125887194      1.15916590708182
  H          -2.73869274757443      2.16282757878028      1.90121861684904
  F           2.13148789131419     -0.88414188074700      1.57849322157554
  F           0.94787474504948     -0.43834010004170      3.31878789326523
  F           0.05397988726792     -0.39533878478918      1.36417978413408
  O           0.31211894828713      2.85223548305947      4.90273773648988
  O           2.30972075766741      2.38135695489488      4.27685944005835
