19
Coordinates from ORCA-job NEB_reactant E -45.079697372060
  C           1.69333723192129     -0.01045182306994     -0.06306185159074
  C           1.15144296407828      1.16025630232320      0.27052350812182
  C           1.87233425601857     -1.10387868446146      0.93887634124231
  H           2.02805327044094     -0.21969921145560     -1.06156574528298
  H           1.03038758730982      1.93896115410697     -0.47566467310910
  C          -0.30847405425287      3.97825944453467      3.83357330099061
  C          -0.12936183031700      2.82596120925917      3.20152667517170
  C           0.14049695647022      2.68873534383104      1.74281179885643
  O           0.74376694173698      1.43074485649446      1.51592443297086
  N          -0.59479171326716      4.01769682347254      5.24179796637188
  H          -0.26057110690344      4.95722906663254      3.38083634620027
  H          -0.18577628684316      1.89680700791492      3.75618609615345
  H           0.78631499636619      3.50141456918114      1.38304688252196
  H          -0.81670294895859      2.74607721778158      1.19905784408984
  F           2.69252173443244     -0.76248684960578      1.94950521504088
  F           0.71696782038053     -1.48499216331190      1.51294200484021
  F           2.39836192888483     -2.20330931832202      0.37998479075712
  O          -0.70687356462117      2.97053918014818      5.83541346730823
  O          -0.70473418287669      5.11903587454629      5.73338559934525
