18
Coordinates from ORCA-job NEB E -34.434920402100
  C           0.55867264711975      0.91656420539871     -1.27229863526511
  C          -0.40498613185997      0.88071824315090     -0.26403561438821
  F           0.17544156300546      0.58848930317944     -2.52425286186562
  H           1.31290277154750      1.69471639058324     -1.27989894060128
  O          -0.10162385150432      1.60699091598920      0.84943811145103
  C           1.49132936687829     -0.80707065511874     -0.78974971151118
  C           0.44253758052768     -1.70099834479647     -0.89489998855440
  C          -0.64092551667104     -1.54208264578272      0.01707712729587
  O          -1.29097982596100     -0.05629079241679     -0.22645618361491
  F           2.48359627524951     -0.85658429641857     -1.69377792542621
  H           1.87759191061700     -0.47679751551044      0.17152447243331
  H           0.25739695271862     -2.14275843181504     -1.86170952929371
  H          -0.37144027817118     -1.46999790049238      1.06715136878280
  H          -1.50173708547776     -2.17668330038574     -0.14917986989143
  C          -0.92085094081492      1.41294220223675      1.99117658812188
  H          -0.92516488290552      2.35817939679545      2.53036807916166
  H          -0.50551423366190      0.63020705985178      2.63164862931162
  H          -1.93624632063621      1.14045616555140      1.69787488385388
