18
Coordinates from ORCA-job NEB_reactant E -34.460130225710
  C           1.96071255305480     -0.08723849776159     -0.03071613080774
  C           1.97020389261509     -0.33228650925215      1.28164106349180
  F           2.00286773170586     -1.04780153966901     -0.99191530883844
  H           1.93078064713224      0.91080300412687     -0.42632334793156
  O           1.92057443423843      0.75610106684097      2.09156971174931
  C           4.49124575486340     -3.70988570210570      1.37868922325229
  C           3.64811810420191     -2.86430581048188      0.81934105150458
  C           2.22616767614862     -2.72784157125453      1.26995929190549
  O           1.99738470577729     -1.50536648679735      1.95915618656008
  F           5.76234877494146     -3.81734952895339      0.97066361013511
  H           4.26633621078562     -4.39694922244705      2.18263303845954
  H           3.97857527491709     -2.21950702482117      0.01923097769867
  H           1.98449297360896     -3.49538700783372      2.00938192966970
  H           1.54667461113563     -2.82152917742541      0.41725958677558
  C           1.92430932738152      0.52440462609649      3.48886084801059
  H           1.89151773049076      1.51381098711947      3.93967369576846
  H           2.83064754606148      0.00133645891317      3.80266720195776
  H           1.05124205093985     -0.05530806429401      3.79712737063877
