18
Coordinates from ORCA-job NEB_product E -34.488935014450
  C           3.16041775533488     -0.62291021816638      0.34587997283718
  C           2.07260253969810     -0.35679337957751      1.38582901931613
  F           2.59224934821215     -0.65611862723525     -0.89742724888411
  H           3.89564177589151      0.19228265628058      0.34505461289348
  O           2.63214349045211     -0.14655695150369      2.58005620410658
  C           3.86508061415862     -1.95859189319752      0.65781909430817
  C           2.96772726998233     -3.12163698631910      0.36299833560871
  C           2.34902845570471     -3.81302862119929      1.29971834669600
  O           0.89676982185741     -0.35066852644865      1.17253586029283
  F           5.01398042331747     -2.03397330423902     -0.10180566570124
  H           4.19064809235191     -1.94117925167032      1.70570328100771
  H           2.84127579330682     -3.33536164331350     -0.68786756191702
  H           2.47697665562914     -3.59566451055020      2.34809957065682
  H           1.68663176795459     -4.62413662345109      1.05510508570716
  C           1.72701828654509      0.10181287501562      3.65409673014868
  H           2.34160955373998      0.23941367317835      4.53937843329841
  H           1.04981534407574     -0.74461422261636      3.77975178414511
  H           1.13778301178744      0.99722555501334      3.45087414547939
