16
Coordinates from ORCA-job P E -26.203199908560
  C          -1.42796552542105      0.60687657273539     -2.20899300683025
  C          -0.32538101536460     -1.66463851328263     -0.64748557722365
  C          -1.28544703208403     -1.82564610970622     -1.78534591776282
  C          -1.77640270819063     -0.81776426956998     -2.48740915964650
  C          -0.87037479603184      0.79339043711915     -0.80312628010513
  C           0.21844469358440     -0.24283629206587     -0.54378378947373
  H          -1.56018869399516     -2.84264434280468     -2.02460390757153
  H          -2.44849513785153     -0.98843819984043     -3.31463406482332
  Cl         -2.89646135080651      1.62931653621459     -2.39630522087447
  H          -0.82306299751175     -1.92645850850114      0.29040969782180
  H          -0.71944356451472      0.97619525697972     -2.95776813544047
  H           0.51245024240114     -2.35430502351448     -0.77789158268112
  H          -1.66471848417334      0.64893970075461     -0.06969181725362
  H           0.69131259650704     -0.07504190487917      0.43270768174545
  H          -0.46673017687485      1.80041661455516     -0.69015162461600
  F           1.23175395032744     -0.07422195419402     -1.47238729526463
