16
Coordinates from ORCA-job R E -26.106753522150
  C          -1.28254181721827     -0.01315190003828     -2.83028807691733
  C          -0.08868097265583     -2.54676571469336     -1.71720304622342
  C          -1.37935490856176     -2.30514344616205     -1.92063788537117
  C          -1.96268558556377     -1.04029614335264     -2.32732186623364
  C          -0.80609473794409      1.83546544017854      0.17523498941683
  C          -0.11641538795205      0.71792045793085      0.22761870635330
  H          -2.09762398332048     -3.09843336254945     -1.75597826861931
  H          -3.03497514571186     -0.95545687311064     -2.21353499134548
  Cl         -2.04231319604001      1.45800713862072     -3.27610266732358
  H           0.25787210140648     -3.51842035401200     -1.40820318052944
  H          -0.21860215982884     -0.01885880123034     -3.00248805714102
  H           0.66703571134672     -1.79051454463660     -1.83505602067936
  H          -1.64919804625537      1.98698710555006      0.82120854496805
  H          -0.29886434741961     -0.12541300946852      0.87722493312971
  H          -0.55138772220174      2.62195670839492     -0.51246254121785
  F           0.94372019792048      0.50341729857878     -0.56951057226629
