16
Coordinates from ORCA-job TS E -26.091943284820
  C          -0.56849107172144      0.73010199088312     -1.30148070208051
  C           0.78420567437248     -1.42608605340900     -0.01327869531305
  C          -0.53821348773179     -1.47935454074549     -0.32073042139666
  C          -1.20872725652176     -0.42415317785482     -0.97190543683208
  C           0.07156772909152      1.34537209629347      0.81255114689395
  C           0.84865158640556      0.37280337547383      1.34300879422587
  H          -1.15184219189827     -2.26235722034082      0.10234411722206
  H          -2.28752710815460     -0.45691965440696     -1.01909836605256
  Cl         -1.45501824129306      2.07214981717730     -1.92231621755824
  H           1.23203654366736     -2.20396725639934      0.58401105975620
  H           0.48110855970033      0.78152230494500     -1.53449243425649
  H           1.47604967706084     -0.85000289710622     -0.60108456183840
  H          -0.95649699912446      1.42108953324659      1.10798237490347
  H           0.55314592259357     -0.30385977840622      2.12864199570850
  H           0.52488356286989      2.20307214015194      0.35049891938432
  F           2.19466710068385      0.48058932049762      1.25534842723363
