21
Coordinates from ORCA-job NEB_product E -54.415362752260
  C           1.41907383130619      0.90079211895941     -1.60408517974257
  C           1.77542687278682     -0.32960349061493     -2.43323296475878
  C           2.52792297495432      1.16668162720301     -0.56976160459186
  H           0.49243970915054      0.70189480137404     -1.05284527628097
  C           1.60780565283234     -1.71202987772466     -1.72338016301811
  C           1.16151721637534      2.09212432511658     -2.56265015489160
  C           0.26298889939326      3.14596508316782     -1.94688026776143
  C          -0.96085144057570      2.89571653228140     -1.52295058248109
  O           2.09202168447337     -0.30305380249370     -3.58211533773847
  C           2.38925638857442      2.69899818365703     -3.03538368524884
  H           0.65830471337420      1.68154287737470     -3.44953781508895
  H           0.67500077488215      4.14253881643779     -1.89382288375157
  H          -1.40883249494210      1.91625342324810     -1.57805911404975
  H          -1.57351134828358      3.67175661834912     -1.10072538190370
  Cl          2.52110463529633      2.85273811468971     -0.02365822745068
  Cl          2.28996277810362      0.14357106293750      0.87156249690348
  Cl          4.12993732971827      0.79745305200618     -1.27575944077262
  F           1.34190815980510     -2.65400946561916     -2.62654045993350
  F           2.70295492455594     -2.08554208219486     -1.06239018675984
  F           0.58684935355107     -1.70225527200666     -0.85451303976097
  N           3.32171938466810      3.22786735385158     -3.42717073091820
