21
Coordinates from ORCA-job NEB_reactant E -54.421565185390
  C           1.90915166292341      0.11484992411882     -0.22245199347577
  C           1.26911400742038     -0.31837312027967     -1.31652449401682
  C           1.76383386861708      1.36579086889928      0.56623594170362
  H           2.64749933356156     -0.55874620344046      0.18782460146703
  C           1.63577586769435     -1.70897254032288     -1.84766626704704
  C           0.91722821404613      3.55793077276756     -3.36187313274143
  C           1.00884261223137      2.26131553210093     -3.07372132307674
  C          -0.01441861913754      1.52188728918856     -2.26811135736681
  O           0.31584772065563      0.14723938295833     -2.12696518292592
  C           1.89079452598237      4.22885069049917     -4.12682841793367
  H           0.09337781938884      4.16681579199211     -3.01292772583033
  H           1.84092862533724      1.67341593784836     -3.43740194311827
  H          -0.96843497411023      1.49872774657289     -2.80719077836097
  H          -0.18169071764449      2.00033114575142     -1.29918097658801
  Cl          2.31237675303274      2.81676401217154     -0.33977136783838
  Cl          0.07488709782797      1.62653989091727      1.10309183481357
  Cl          2.76479871109556      1.25502063649389      2.03325752248063
  F           0.55318586093996     -2.47193387804438     -2.00303309000190
  F           2.22392603861680     -1.60958838604214     -3.04677587625941
  F           2.47768506783835     -2.38145231696332     -1.06022271152542
  N           2.67709052368249      4.78818682281271     -4.74526326235796
