23
Coordinates from ORCA-job NEB E -40.933733032170
  C           0.60858526171632     -0.95949993218596      0.03013245497275
  C          -0.76578032362895     -0.94150635586573      0.26665518769046
  H           1.23912430167872     -1.36208003738995      0.80985475281199
  H           0.96310359478785     -1.16722498341433     -0.96812659412514
  C          -1.79239398599576     -0.78057527829075     -0.82289558673111
  C           0.96265090766836      0.89832489628720      0.38183473404477
  C           0.49649444301006      1.08715267952765      1.68410751906870
  C          -0.89534035632047      0.82740309582460      1.90893031457670
  O          -1.16220909040209     -0.66945003190533      1.49319794713951
  C           2.44059813574751      1.04485676612771      0.14233037589672
  H           0.39657669558344      1.32332414485178     -0.44143360121680
  H           1.18384182210987      0.91614164983334      2.49940697330771
  H          -1.58310264130411      1.37269145244947      1.26221533600971
  H          -1.21397987309505      0.85115279340281      2.94467214129186
  C          -1.30934468407697     -1.08620585087553     -2.23304678845698
  H          -2.17298285044769      0.24870805980684     -0.77524342719913
  H          -2.63701212423028     -1.42844579163695     -0.57177321070196
  H          -0.53225766543884     -0.39294528482372     -2.54538758854149
  H          -2.13826288124025     -0.99753907144493     -2.93123546889524
  H          -0.91909043018728     -2.09902458218373     -2.29362363196545
  F           3.18892162268027      0.33168141129144      0.99361038165375
  F           2.79726485285613      0.66008711488562     -1.09540453767808
  F           2.84459526852921      2.32297313572843      0.26122231704671
