23
Coordinates from ORCA-job NEB_product E -40.982975773860
  C           2.39181452733632      2.31090392526942     -0.23707603842628
  C           1.14729675538103      2.59169499861279     -1.07669430593409
  H           2.21616430060595      1.36597366564931      0.28391972439793
  H           3.27389062365789      2.19486698414837     -0.86768365844683
  C           1.26457153340419      2.17853340366441     -2.52167017727602
  C           2.60836237703916      3.41101159334197      0.81252113147267
  C           3.48027244160100      2.95234135477647      1.94660672973678
  C           3.09155389250389      2.93868400025529      3.20655571065631
  O           0.16539184382670      3.09209158416872     -0.59653870936810
  C           3.26014813598792      4.61359086352983      0.13988349390005
  H           1.63219497108130      3.74086011522179      1.18567367069108
  H           4.47019917423989      2.62311593539242      1.66115514863602
  H           2.10947152457857      3.26854450634940      3.50179417627009
  H           3.74078537618672      2.59705366779234      3.99351135952470
  C          -0.06553431394386      2.25758182237888     -3.25812176657124
  H           1.68099708641031      1.16936449648384     -2.56745596319484
  H           1.99085216178775      2.85370684399136     -2.98368869855730
  H          -0.78318497170789      1.57136478295968     -2.81560582130548
  H           0.06336601466482      2.00381839368488     -4.30684550118643
  H          -0.46977600304525      3.26342784987292     -3.18464126577078
  F           4.49846188202650      4.33820812459740     -0.30962467778023
  F           2.57429307615389      5.04976931743732     -0.92874137887664
  F           3.38140759022320      5.65729177042120      0.96976681740863
