23
Coordinates from ORCA-job NEB E -40.713249800500
  C          -0.20458414501888      0.95360844512553     -0.56212696888928
  C          -1.56032075460901      0.39177978017620     -0.72226181350679
  Cl          0.83458082102256      0.35144803431625     -1.94543825938675
  H          -0.21589379148794      2.03652816936090     -0.68701260022563
  C          -2.60359166594011      1.17764597008461     -1.44499822716471
  C           0.34563136932037      0.52501426625672      0.80139499451511
  C          -0.38988604044580     -0.71728423608832      1.14628341477836
  C          -0.93760137721879     -1.61961650146262      0.10548521856616
  O          -1.75927966727250     -0.95387298542071     -0.80311463931392
  C           1.88732882811880      0.43393562284752      0.96225183205436
  H           0.02802769958278      1.31725224851921      1.49223927144478
  H          -0.10644316809815     -1.19931078086312      2.07158332104295
  H          -1.53915676717769     -2.42744147496454      0.53177673764715
  H          -0.09491017674138     -2.07923714664527     -0.43727188624103
  F          -3.17404986321563      2.10012795516097     -0.61192247738008
  F          -2.10197874026607      1.91619467597623     -2.47362134455852
  H          -3.40594068591034      0.53550313770041     -1.83485755701014
  C           2.51061335308845     -0.90354354959016      0.57899721174491
  H           2.12494173968863      0.63660651902341      2.00823564076370
  H           2.33038642169252      1.22799459970198      0.35978748784179
  H           2.11074047934180     -1.70863120886812      1.19091121746982
  H           3.58524993669633     -0.85787172794622      0.74008670950148
  H           2.33613619485005     -1.13682981240085     -0.46640728369373
