23
Coordinates from ORCA-job NEB_reactant E -40.767047707280
  C           2.33846971772069      0.72167687886673      0.48232252409463
  C           1.48080914718979      0.95533123309104      1.47894520902555
  Cl          3.46287842361872     -0.57293337373182      0.33808767077608
  H           2.38246496579447      1.39675441544442     -0.35590816773514
  C           0.59971220623177      2.19073639044465      1.37280559462569
  C           3.83530401448734      0.76526638334536      3.63432974346237
  C           3.40185428218491     -0.45973130166946      3.39028398069641
  C           1.98013583371312     -0.80061726743295      3.04226571869388
  O           1.20339824263139      0.30951512883291      2.62249310715295
  C           5.23740460426319      1.16268445780921      3.97273940077004
  H           3.14049684956520      1.59545785318880      3.59092516925015
  H           4.05654098963057     -1.31627930192064      3.43292551429258
  H           1.45340381424113     -1.16208537210672      3.93309153016287
  H           1.95107482625026     -1.59277687829530      2.28579675742424
  F          -0.70415842880301      1.87029760103183      1.51241247651632
  F           0.88868307530728      3.06035920509626      2.37001788107742
  H           0.71915730361733      2.72275671545388      0.41768760748798
  C           6.24200668689151      0.01923256197864      4.01055711745491
  H           5.22007286803140      1.66683405099918      4.94420010335924
  H           5.56246520021492      1.90788214831893      3.23941822978227
  H           5.96593830055184     -0.71129265170639      4.76707638471573
  H           7.23114895426760      0.40230830415021      4.25049511013351
  H           6.29293812239857     -0.47817718118877      3.04493133678032
