19
Coordinates from ORCA-job NEB E -36.050576044440
  C           1.09555992836550     -0.30437988306075     -0.38606965332427
  C           0.60614766402108      0.15612255910580     -1.62239296802738
  C           0.89611999979730     -1.71454673743588     -0.00377902254722
  H           2.07685359059886      0.05565550976054     -0.08677601987523
  H           1.16197664188001      0.99535039676929     -2.07060449617448
  C          -0.14048720034582      1.02009934540486      0.78070217583930
  C          -1.38435962926127      0.53327473209046      0.32887534271468
  C          -1.83675397705111      0.79623832284928     -0.93726659755112
  O          -0.52128822871094     -0.14105921327061     -2.06412904275403
  N           0.21137970787537      0.92927870389425      2.08576033218927
  H           0.28272845712838      1.88023821470372      0.27565707551789
  H          -1.85587019005992     -0.24388294006469      0.91391446511732
  H          -1.56464160722558      1.71012001344768     -1.43956422484463
  H          -2.72949908467377      0.31344429569321     -1.29617803059274
  Br         -0.77755228399218     -2.54095969291690     -0.47505585798049
  Br          2.34232249375542     -2.81124217691607     -0.92738702078205
  Br          1.20482076496458     -2.05124572748224      1.90987233160028
  H          -0.19629444227051      0.19313058589842      2.64103216166058
  H           1.12883739520460      1.22436369152963      2.37338904981433
