19
Coordinates from ORCA-job NEB_reactant E -36.093955138080
  C           1.48791510361995     -0.05141831842824      0.00751759991823
  C           0.77321387689782      1.06167709549725      0.21703723505407
  C           1.96764376200120     -0.83079756141618      1.15880611914530
  H           1.71964040374052     -0.39487571294298     -0.98512711201600
  H           0.40869300243176      1.66219822147876     -0.60925333218763
  C           0.16073312530568      3.36484784487763      4.00777058751798
  C          -0.59457126676293      2.75470382092965      3.09307423102389
  C          -0.20546501198885      2.68235918333903      1.65636068619087
  O           0.49392110729590      1.44574729354093      1.45804907323177
  N          -0.15780178753199      3.49135316671364      5.33456780820231
  H           1.06188234134276      3.88595743455707      3.71234765009472
  H          -1.48087345604636      2.21153261123037      3.38221111846432
  H           0.46644279468315      3.50692996171905      1.38824221326929
  H          -1.08362144884063      2.70241584469819      0.99983767944642
  Br          2.99848650083345     -2.37784927973257      0.60436531070373
  Br          3.10617160680729      0.25537744450468      2.35002017052410
  Br          0.47675190091428     -1.47001477276001      2.28307122010888
  H          -0.86830515693089      2.86319928661824      5.67698478418858
  H           0.60574260222789      3.64455643557549      5.97161695711918
