19
Coordinates from ORCA-job NEB_product E -36.077544263650
  C           1.52134956965037      1.26551970664262      1.80671674029297
  C           1.57496117935171      1.57344036273478      0.32332128752427
  C           1.10444019255006     -0.17471184495959      2.03246919606048
  H           2.54494039326183      1.38426254758210      2.19114249532384
  H           1.99190078397751      2.57618571351280      0.11987057157694
  C           0.70468274829726      2.39466791716474      2.52239569600300
  C          -0.75811300194674      2.08675462305576      2.69892828735301
  C          -1.71361409989808      2.66758889861205      1.99679122614434
  O           1.21240068163396      0.84703520378477     -0.55187250435796
  N           1.38837836768626      2.73046604036120      3.76117785495793
  H           0.79033436317265      3.27957865330800      1.87722209574043
  H          -1.00617675043031      1.40381849926772      3.50103396336041
  H          -1.49432439374042      3.36418954906334      1.20389110873586
  H          -2.75299943116332      2.45379328337445      2.17288587457152
  Br         -0.59556339280276     -0.65231470582790      1.22692420972520
  Br          2.47295245807022     -1.35312039722641      1.25653696538027
  Br          1.01382579088690     -0.62964787833482      3.92665598110096
  H           1.24831921209589      2.01717380562737      4.46937311990038
  H           1.03680532934702      3.60462002225701      4.13223583060615
