23
Coordinates from ORCA-job NEB E -43.202199403770
  C           0.65787613838549      1.17200136574933      1.13001652537257
  C          -0.08866264717676      0.06296591126278      1.05971525459816
  C           0.77915759127848      2.15372166315024      0.01111921722359
  H           1.21876446426254      1.40965910611915      2.01766525339744
  C          -0.15543918600652     -0.92623552494075      2.17627868425565
  C          -1.05349326274012     -2.52926820067633     -2.46969273190323
  C          -1.51893933363054     -1.42988524170339     -1.90957173631796
  C          -1.59502704282141     -1.25134086185776     -0.42501946115299
  O          -0.76593362586000     -0.14079394576265     -0.10970583586831
  F          -0.99163466869801     -2.67044563165252     -3.79822313672384
  H          -0.70337466318895     -3.41137609305237     -1.95144531628744
  H          -1.83355503254012     -0.59375070311052     -2.51438328330636
  H          -1.28852714319223     -2.17894361549888      0.06124666239428
  H          -2.62942167028444     -1.01662379922793     -0.13637777265787
  C           2.21569595107142      2.64795086334019     -0.13232559751928
  H           0.12545141010024      3.00599142782010      0.22129987054639
  H           0.43963325713123      1.69259322743651     -0.91633100647626
  H           2.55136921136241      3.12521369365138      0.78568207627933
  H           2.28394750778291      3.37044138093783     -0.94130839324743
  H           2.88331624956386      1.81876780999264     -0.35435326349790
  Br          0.72529665854483     -0.34865523394306      3.80387508668568
  Br         -2.00822399667908     -1.33617832237798      2.72104892315500
  Br          0.75172383333477     -2.62580927565599      1.67078998105080
