23
Coordinates from ORCA-job NEB_reactant E -43.208521371330
  C           1.76085736883534     -0.28273149563267      0.03252232042979
  C           1.52788853605900     -1.58488754293434     -0.11060918553667
  C           1.85812372877054      0.67919978091662     -1.10191554702115
  H           1.92407403508967      0.12739867902896      1.01932563423345
  C           1.43347091538281     -2.52089225069453      1.06371478285125
  C          -0.30103587836212     -4.10990047213033     -3.47621645358761
  C           0.07289197058884     -2.88300694560068     -3.16718840794513
  C           0.01990416752291     -2.35617798829151     -1.77255222372079
  O           1.37112473557960     -2.18789900640393     -1.32883197540737
  F          -0.24177620308913     -4.56746338138100     -4.73018948709205
  H          -0.70017246973661     -4.84567697936537     -2.79227094206185
  H           0.47945196461738     -2.22870655052148     -3.92284291649848
  H          -0.51530616144061     -3.06063451798118     -1.12381108452663
  H          -0.49281735781958     -1.38505551485203     -1.74545568362943
  C           3.15081933958789      1.48845221564938     -1.01682056899822
  H           1.00497545770090      1.36309892856140     -1.05226372731715
  H           1.81627339886979      0.13847812229452     -2.04824573344059
  H           3.19682502312177      2.04098062222851     -0.08124007792113
  H           3.20236394724303      2.19617223881824     -1.83985852602903
  H           4.01405146479396      0.82980143033192     -1.07222773854568
  Br          2.72374523689144     -2.11694277282754      2.46150991108003
  Br         -0.37358603215385     -2.39697024686250      1.88684869979978
  Br          1.71245281194700     -4.35343635235047      0.49471893088467
