23
Coordinates from ORCA-job NEB_product E -43.221669883670
  C           1.83717115995558     -1.49220811131858     -1.23317262502311
  C           1.02462295106536     -1.50395416280249      0.02609198511026
  C           1.81161112778312     -0.07769153054997     -1.83964847509905
  H           2.87359249125202     -1.79537262686303     -1.05173682764359
  C           1.66801852406895     -2.14720524858901      1.25698521809418
  C           1.22269462891694     -2.51544716953385     -2.23481731615112
  C          -0.20893573412900     -2.22973922498111     -2.56014145678849
  C          -1.22070600356930     -2.84959579825037     -1.98289068783911
  O          -0.08726061496243     -1.06791003303744      0.12166882020108
  F           1.98579529365538     -2.46045508089927     -3.38110393047925
  H           1.34188499899367     -3.53539326725706     -1.84668894051381
  H          -0.36351707106158     -1.46801317368888     -3.30963354654322
  H          -1.07380180992633     -3.62121333959758     -1.24428843250428
  H          -2.24053708282223     -2.60783240852727     -2.22259470019709
  C           2.61399700003246      0.91780298715054     -1.01355142266254
  H           0.77363071845036      0.25283882417164     -1.90665915911217
  H           2.22755292579485     -0.13463612761439     -2.84641758005628
  H           2.17564021195618      1.05252656965866     -0.02649907138834
  H           2.62205458318403      1.88417135334689     -1.51059907151935
  H           3.64382839440274      0.58782719443174     -0.89379503731401
  Br          3.34372617460364     -1.27289476996627      1.70425110119774
  Br          0.45636080282567     -2.02162287255426      2.76002895393548
  Br          2.02237632952990     -4.02758198272867      0.87591220229605
