19
Coordinates from ORCA-job NEB E -43.606025606560
  C           0.49328439769239      0.15369190385994      0.98928381665629
  C          -0.93210810256692     -0.18676629777761      1.34578519705843
  C           0.56600445318370      1.60805882368628      1.08943844001697
  H           1.15255760136353     -0.23831444302341      1.77665763176739
  C          -1.36503940496632      0.19945417832224      2.60813702602041
  C           0.95905160856395     -0.40467749701608     -0.36965875051998
  C          -0.03193676344787     -1.34342501632071     -0.95884699314374
  C          -1.46880094290174     -1.12196727842778     -0.74166499750592
  O          -1.85129736977209     -0.69553203578571      0.52880167042904
  C           1.25542500328000      0.71377672920688     -1.39531474679267
  H           1.92368533435549     -0.91165916075910     -0.23682434184294
  H           0.23713091082091     -1.79943467447298     -1.89687806350035
  H          -2.04721857520638     -2.03243519721565     -0.93438853932425
  H          -1.84133614219542     -0.35924750193985     -1.44805535767219
  N           0.58997050647320      2.74226168816074      1.21161787013895
  N          -1.69320754125452      0.49958985643258      3.67323919439958
  F           2.24320179156513      1.53331369795076     -1.02257031854762
  F           1.63587500253256      0.18141782793026     -2.56598347375575
  F           0.17475823248039      1.46189439718919     -1.65277526388167
