19
Coordinates from ORCA-job NEB_reactant E -43.660057149740
  C           1.78205530225099      0.04877354002274     -0.43993521005817
  C           1.45688012232738     -1.26165962614629     -0.34408266870418
  C           1.86256732518397      0.82534168944325     -1.60169089553529
  H           1.98957701400096      0.58625750890166      0.47610916367241
  C           1.40870900157825     -1.81143639564373      0.97408448943860
  C           3.20856826355781     -0.99198192135825     -3.97806448614720
  C           2.70001909290425     -1.83862115200579     -3.09964611244713
  C           1.26766169925260     -1.83814238732937     -2.65721368912856
  O           1.14343962838369     -2.16539468591032     -1.28562284320253
  C           4.63870874873139     -1.05190688005803     -4.41727083967644
  H           2.64294585426032     -0.19395213321679     -4.43455048288371
  H           3.31224284697870     -2.61308662053405     -2.65449326886105
  H           0.73899460668008     -2.64946591072641     -3.17089183346967
  H           0.77480984134066     -0.88937940681230     -2.88948356947907
  N           1.92321670979919      1.50799118460991     -2.52368716882164
  N           1.39055845038851     -2.22239558755633      2.04152146301256
  F           5.32220806635527     -2.06174927078879     -3.85924276156624
  F           4.74389388153272     -1.20849709278437     -5.74722132715399
  F           5.30384354449331      0.07280514789327     -4.11341795898872
