67
Coordinates from ORCA-job A2R E -96.382327690810
  Ru         -0.11448725463930      2.16646037908621     -0.43815783502102
  H           0.05706801691774      0.64963743597212     -0.74458204676137
  N           1.01373520653843      1.79285111564567      1.26923397693593
  C           2.30591888994676      1.43494873696659      1.17074211401583
  C           0.43765881731314      1.79646214816169      2.48687594385594
  C           3.03856625259210      1.04252730278237      2.28416345535742
  C           1.11271967075372      1.39455691251164      3.62829127915586
  C           2.43793514310018      1.00424211930739      3.52952279130051
  H           4.07040441256377      0.75381916148911      2.15881116212980
  H           0.60276880852363      1.39586270404593      4.57887912064502
  H           2.98521554578536      0.68361678793703      4.40168856952536
  P           1.98860145335417      2.48925532507782     -1.34769954842620
  C           2.46511642961333      1.77250726471358     -3.03443658128991
  C           2.82556607997485      4.18505305072439     -1.10346903348923
  P          -1.77336004440742      1.83269411699282      0.96427967390253
  I          -3.82634845355273      3.12423069344005      1.12341299426634
  I          -2.60427826297388     -0.40012455333039      1.61193417706568
  C           2.93795735958264      1.41681905520587     -0.18215033425143
  H           2.85093792122476      0.39135502559933     -0.56885658340560
  H           4.00163312477781      1.66508557790296     -0.12759778283987
  C          -0.97386629708435      2.28879119354620      2.57043232126295
  H          -1.48936341345930      1.92427709956924      3.46486557702460
  H          -0.96656996346431      3.38920507923189      2.58968814329406
  C          -1.12131086409043      2.43585567552294     -1.96484759601403
  O          -1.76763479207149      2.59896403043590     -2.90459480733383
  H          -0.23275227566318      3.67279035218766     -0.06084348902583
  C           3.91917913853593      1.30946520960743     -3.13618747298492
  C           1.56953772760553      0.55319724201906     -3.25936995923601
  C           2.13506185384557      2.80330628245944     -4.11505425277790
  H           4.10656951740559      0.46597047455368     -2.47619078287885
  H           4.10506146046327      0.97694925945361     -4.15722202961373
  H           4.62998347484399      2.09648053754155     -2.91122518640200
  H           0.51911495739730      0.83933335762450     -3.28443683041732
  H           1.82012676303194      0.08428580257105     -4.21025446224933
  H           1.70116937781569     -0.18555290747323     -2.47303161049601
  H           1.14776061493540      3.23147078253183     -3.93306861164676
  H           2.87026512748238      3.60317867656949     -4.15320956684199
  H           2.11857355068896      2.32091023024545     -5.09183094006178
  C           2.80295398041945      4.46410548991424      0.40369416564009
  C           4.27199620686209      4.28545852891154     -1.58277150101343
  C           1.96914940512556      5.24418134202422     -1.80054342899269
  H           3.47844412888125      3.80764557875758      0.95101797394633
  H           3.11335478917237      5.49158486001240      0.59087460991968
  H           1.79477515591476      4.34753295677425      0.80025225707582
  H           4.34585179397806      4.22537621755881     -2.66467291463814
  H           4.67230154410787      5.25365880647504     -1.28138628171936
  H           4.90073376250344      3.51682321297358     -1.13703607139767
  H           2.09508519528548      5.22244349717462     -2.87864223732439
  H           0.91523020240301      5.08367701043268     -1.57323265159897
  H           2.24619488974719      6.23782515492135     -1.45041110621694
  C           1.57967312073979     -2.12341845583535     -0.11670419398486
  O           2.61678216382941     -1.62000804212738     -0.51123669197484
  C           0.59125358287164     -2.68355653293604     -1.05994441612146
  C          -0.70840131215775     -3.02092173405487     -0.68411021624794
  C          -1.60539126346070     -3.48184716052846     -1.62919599279790
  C          -1.21748818988372     -3.62960376468897     -2.95131910764266
  C           0.07855798494840     -3.31790236363500     -3.33120235474714
  C           0.97415790965916     -2.84580701247822     -2.39373585495575
  C           1.25616132901025     -2.18194700058431      1.35316018517924
  H          -1.03677146590856     -2.90970365481355      0.33703194927496
  H          -2.61427516313963     -3.72251134447677     -1.32950237499683
  H          -1.92453054980699     -3.98823043639777     -3.68475200433454
  H           0.38684587358915     -3.43901570255332     -4.35917763944150
  H           1.98878150143879     -2.60253549062768     -2.67360052950328
  H           2.12225948765363     -1.86700173284606      1.93188566929530
  H           0.96221878325025     -3.18717885150587      1.64341318685193
  H           0.42586007775879     -1.51126211427052      1.56774361619400
