67
Coordinates from ORCA-job A2S E -96.384729661460
  Ru         -0.33708750567738      1.93890556818662     -0.55716443246466
  H          -0.18277618739653      0.39645116536920     -0.70488574892376
  N           0.64951169955824      1.70104702027960      1.25499837162762
  C           1.95098734047433      1.36130166278140      1.28697297328537
  C          -0.00987399381567      1.83324564965302      2.42039461251739
  C           2.61855405837309      1.15717860782245      2.48729048185158
  C           0.59666275970900      1.60689611994415      3.64562289379209
  C           1.93805538471141      1.26939037805610      3.68574157318217
  H           3.66585174462063      0.89964976421647      2.46998069829485
  H           0.02229698307899      1.71234492796735      4.55256173349826
  H           2.43772357380105      1.10518076548814      4.62680976384676
  P           1.83163107890409      2.15145846528441     -1.33989843637649
  C           2.41567847949146      1.28527139364340     -2.92061040345724
  C           2.68175888610946      3.85166953235911     -1.18220183578984
  P          -2.11663663601344      1.79340248838651      0.72291055907738
  I          -4.05132378567155      3.26482153335465      0.59414894990846
  I          -3.23052002025599     -0.30028489969713      1.39301999429459
  C           2.66647118687505      1.17475829769744     -0.01117827398706
  H           2.55181249077108      0.12281573857020     -0.30713379001675
  H           3.73441853367416      1.38653317636582      0.08650442988630
  C          -1.43002748278171      2.30747782546539      2.36350623609265
  H          -2.01035696060059      1.97475913276392      3.23020336633969
  H          -1.42709005037227      3.40808245878650      2.34670450202480
  C          -1.21864260755090      2.10516704844489     -2.17383030473041
  O          -1.79053339000821      2.20930772334212     -3.16871768794632
  H          -0.43114347484345      3.47346487007334     -0.31565783963959
  C           3.86076181903161      0.78844994283646     -2.86828442854666
  C           1.51328559460406      0.06696990772917     -3.12393444002480
  C           2.19246946674309      2.23284344642400     -4.10069782415821
  H           3.96742973436647     -0.01302205384779     -2.14138610326248
  H           4.12150964564644      0.38275568527060     -3.84541679145296
  H           4.57142740296155      1.57355526634759     -2.63619226811917
  H           0.46777230616018      0.36322401763720     -3.19777690121137
  H           1.79299981063190     -0.44130705350954     -4.04603776672987
  H           1.62028351518816     -0.64110033925719     -2.30681421840048
  H           1.20254417884716      2.68751537575853     -4.03219776915566
  H           2.94414215125691      3.01683948247970     -4.14262448937620
  H           2.24318750948541      1.67556397122180     -5.03550201306039
  C           2.56110580941174      4.26507401780007      0.28900079511846
  C           4.16045471476176      3.88965886744391     -1.56212904832857
  C           1.89793231072566      4.85775634339698     -2.02789703191707
  H           3.18878133826405      3.65503364072902      0.93736262117522
  H           2.87337921564004      5.30256884758014      0.40402439113911
  H           1.52742157415993      4.19404557442091      0.62581550365899
  H           4.31176109809098      3.72723881670245     -2.62512875519793
  H           4.55569164452632      4.87712152466110     -1.32289107225175
  H           4.74066365439163      3.15899330775403     -1.00149282009798
  H           2.10045649869310      4.74253210070875     -3.08811039597660
  H           0.82749974952241      4.73139062001886     -1.86570978504507
  H           2.16789143402837      5.87413009614384     -1.74371784687630
  C           1.41301835551693     -2.36862363133555     -0.03664882762260
  O           2.43545284846913     -1.93765148872938     -0.53762935794027
  C           1.18601551885214     -2.26270666854463      1.42429096871914
  C          -0.08280469603425     -2.33634059188933      1.99320199826318
  C          -0.24146380661225     -2.18423530457256      3.35831721883568
  C           0.86281138769101     -1.99209413381651      4.17273355607082
  C           2.13193285851347     -1.93970476796633      3.61791715983811
  C           2.29084998348043     -2.05871059423753      2.25171122578493
  C           0.33029099216198     -2.99651908535406     -0.86420307771325
  H          -0.95223054218090     -2.49464943038969      1.37605960297149
  H          -1.23355063800969     -2.22363243872000      3.78318631426704
  H           0.73507290549797     -1.88812285876998      5.24030844414728
  H           2.99595243821307     -1.80374938557031      4.25191211614634
  H           3.27173247651536     -2.01227546247270      1.80081586257759
  H           0.72284914037417     -3.26038722540946     -1.84346466048993
  H          -0.46427244893608     -2.26270710507439     -1.00238285746277
  H          -0.08781105581612     -3.87301764820319     -0.37707961448290
