67
Coordinates from ORCA-job A3R E -96.344062103810
  Ru          1.54103602461007      3.45892850946271     -0.40303969690435
  H           0.39158808205814      2.00613175122033     -0.43500466537749
  N           2.12825902190530      2.46970997289168      1.33790791732958
  C           2.67229051678083      1.21458557139189      1.18442729018844
  C           1.80732257123360      2.91893822146280      2.55961419755924
  C           2.76948454787166      0.37335626754334      2.33355011523781
  C           1.90781005320751      2.14314340960587      3.69232095751270
  C           2.38592253529426      0.82864521222567      3.55786953150303
  H           3.16013179026223     -0.62388705362599      2.20057223746288
  H           1.63485481986612      2.53925504207579      4.65593374361021
  H           2.45686621440332      0.19606640476591      4.42974627056189
  P           3.20125009066689      2.08618485017813     -1.29692261807462
  C           2.97016472945507      1.30380551899441     -3.00902294215667
  C           4.98087761215868      2.77668923784799     -1.13534436448788
  P           0.41934360706217      4.72803481429359      1.09560407495876
  I           0.76243932650108      7.13717254066870      0.91860867924666
  I          -1.89855406898771      4.71663684920260      1.97299844760527
  C           3.06213571781075      0.79711294059120     -0.08723752837731
  H           1.18488100217940     -0.10463617335404     -0.27325470233806
  H           3.58795807920895     -0.14136565101453     -0.19794792950309
  C           1.37430291398630      4.35734040819154      2.63895307900151
  H           0.82867056603918      4.57382675478287      3.56124709258708
  H           2.27331834777963      4.98903381902374      2.60522207391389
  C           1.00821757711825      4.32448811369301     -1.94868064910390
  O           0.70714493047447      4.93567251567152     -2.87531533232535
  H           2.58799838451600      4.54290545441605     -0.22079649687960
  C           3.55798307404001     -0.10396148418260     -3.08392910901397
  C           1.46229700433351      1.21214401222755     -3.26437202294068
  C           3.56051546334882      2.20733015056513     -4.09039694853658
  H           3.03241462938454     -0.77450410286461     -2.40774947019759
  H           3.43553462237440     -0.48839133217348     -4.09603382381553
  H           4.61626061908419     -0.12039941463951     -2.84239423132663
  H           0.98984652679008      2.19413459431020     -3.18920769060143
  H           1.28369745175392      0.83734364132897     -4.27157002339386
  H           0.97922213485549      0.52722474453805     -2.57306649940672
  H           3.22494339214595      3.23422481243311     -3.94720581447441
  H           4.64616569934876      2.18190141193303     -4.09760869479642
  H           3.21710821672526      1.87350426417076     -5.06920687921247
  C           5.17548416488479      3.07357649555861      0.35462432752704
  C           6.04157687953039      1.76000372076112     -1.55239604018472
  C           5.13165404202547      4.08908589996227     -1.90510454541607
  H           5.11482073672781      2.16533085735683      0.95186047235215
  H           6.15569962137810      3.51948517271358      0.51630967605206
  H           4.42173491374355      3.77789658246626      0.70757988728967
  H           6.04468644072691      1.58594256446683     -2.62462125222450
  H           7.02670966357785      2.13536185223164     -1.27624708006673
  H           5.88719449815934      0.81315000081906     -1.03710505482309
  H           5.27344095893237      3.92910767257089     -2.96836631104662
  H           4.24821420255398      4.71326711606519     -1.75936995851213
  H           5.99772777954779      4.63446254265888     -1.53254540283174
  C          -0.33848625706465      1.11427442226345     -0.31486310034216
  O           0.29803001130183     -0.07163656531409     -0.68866303932260
  C          -1.51157991225663      1.37973126128951     -1.22691359567368
  C          -1.90718281740534      2.67635690910732     -1.51982566698156
  C          -3.01480550796466      2.91295826968040     -2.31160861592056
  C          -3.73498554967053      1.84748802870836     -2.82464732095943
  C          -3.34071776180180      0.55058701158212     -2.54394481580473
  C          -2.23723108381799      0.31546234498506     -1.74406150303100
  C          -0.82601497942739      1.01808350967695      1.13453226025078
  H          -1.33721368007387      3.51912076961675     -1.13446173427468
  H          -3.31176901046090      3.92739167744404     -2.53070844182790
  H          -4.59886534838225      2.03017340805881     -3.44580513343621
  H          -3.89550367174159     -0.28362532099625     -2.94695110485038
  H          -1.91922991759615     -0.69120388368467     -1.52201080443862
  H           0.00330776386288      0.88154598990330      1.82730072008807
  H          -1.47843888968029      0.14982782912808      1.21129580873719
  H          -1.39890111725608      1.89616726106631      1.41784979463774
