67
Coordinates from ORCA-job A3S E -96.339987789490
  Ru          1.23339113827172      3.45273114841801     -0.47069685587318
  H          -0.02339755152707      2.07111358772221     -0.42583659822947
  N           1.86373040065807      2.61422197632179      1.33533102214453
  C           2.45605793808392      1.37341945900103      1.27218623744372
  C           1.56586919230951      3.14385327619243      2.52895509344757
  C           2.69078917170107      0.65918153112445      2.48098778906201
  C           1.80416694590542      2.49144797332317      3.71920730657150
  C           2.37382465475786      1.21230666934603      3.68349526175635
  H           3.13868272815244     -0.32014334207245      2.41121267448725
  H           1.55374255994235      2.96234571456430      4.65521034002423
  H           2.56151146488642      0.68314486851057      4.60530949590019
  P           2.85128433677454      1.98660851048381     -1.30885074598317
  C           2.57684836631546      1.04660581436940     -2.93461640557180
  C           4.63634813195244      2.69359222387072     -1.27236026807314
  P           0.35059205715098      5.02120972827591      0.90795641662591
  I           1.51965482170670      7.16177172116970      0.58678064982585
  I          -1.85232517839083      5.99880054922122      1.47274058187029
  C           2.76924201487140      0.82265670870398      0.02442249048196
  H           0.99208664782585      0.05510645978989     -0.13846596103243
  H           3.34152226008442     -0.09550208054638     -0.00608679818438
  C           0.98080697900118      4.53282174192577      2.58399811255796
  H           0.17794466226105      4.56161883584359      3.32737927140781
  H           1.75974556436795      5.23469380081760      2.90640639204658
  C           0.59967995385797      4.16898124742526     -2.05399942958999
  O           0.20389148581539      4.67364029275213     -3.00987497536615
  H           2.36744077498064      4.43601619990599     -0.50428161575880
  C           3.14989041327114     -0.36793899199473     -2.87976175377785
  C           1.06404087616777      0.94824929490236     -3.15244375779308
  C           3.15038251977815      1.83258569264101     -4.11236346730274
  H           2.63638195263210     -0.96014403566733     -2.12551874233164
  H           2.99956917764771     -0.85202289208953     -3.84420999139916
  H           4.21364926667670     -0.37136412582908     -2.66329136885094
  H           0.60946021232215      1.94117672082364     -3.16601372436282
  H           0.86466987043051      0.47836534054642     -4.11509327009393
  H           0.59126329872798      0.33954696385699     -2.38670652275336
  H           2.82397912559250      2.87108345425761     -4.06587286772653
  H           4.23512954260905      1.79804485356805     -4.14005976541241
  H           2.78496361318824      1.40502555258578     -5.04586165785462
  C           4.88833613336317      3.13120275975212      0.17420813017687
  C           5.68073708292430      1.63474258068386     -1.62188886464429
  C           4.77045325633538      3.92252715989874     -2.17208285419181
  H           4.85454942406045      2.28481397890530      0.85830147230912
  H           5.87339177330484      3.58868560193139      0.25213659522951
  H           4.15088591466404      3.86944559053147      0.49277548838093
  H           5.64621910674271      1.35093584337599     -2.66974992043679
  H           6.67512564245479      2.03276230393073     -1.42125640722638
  H           5.54643852611503      0.74583555974739     -1.00727983197130
  H           4.87989316254151      3.65757560757581     -3.21795437931806
  H           3.89705823487460      4.56757599255573     -2.06433790659028
  H           5.65004804285043      4.49464879740618     -1.88044631191291
  C          -0.63790248676239      1.13906464821697     -0.08337427513702
  O           0.04168774003295     -0.02949724131921     -0.40801469708831
  C          -0.90504141453316      1.25989055135040      1.40372696318359
  C          -1.57364155799061      2.37187917040976      1.89643175595035
  C          -1.85201745045036      2.49259820510681      3.24450145133428
  C          -1.45702484656385      1.49487576055144      4.12049104385817
  C          -0.80484373720737      0.37570212070380      3.63535406903715
  C          -0.53392079052025      0.25324489927651      2.28355580605655
  C          -1.94920184813898      1.14928743022540     -0.87119651698415
  H          -1.90980674439254      3.13149544285060      1.20343679121888
  H          -2.38501796670994      3.36024614643351      3.60707291394790
  H          -1.66749460232068      1.58687197477621      5.17543775860177
  H          -0.50535507086225     -0.41187792100003      4.31050800957362
  H          -0.04253161257639     -0.63149625769127      1.90718072287216
  H          -1.74135892055327      1.05417590625629     -1.93416759219554
  H          -2.51210524210259      2.06183078846578     -0.69813465967591
  H          -2.54660113934039      0.29612415503095     -0.55714734669009
