67
Coordinates from ORCA-job TSA2R_3R E -96.336657866730
  Ru         -1.29062572869739      0.51387261361597      0.37746195117764
  H          -0.74049649579391     -1.13728183071434      0.27539420662462
  N          -0.09571450749082      0.52002280118500      2.09094440686940
  C           1.23146235725603      0.29322037797223      1.92483270709549
  C          -0.62173421858770      0.57752031100970      3.31998616683594
  C           2.04115202138853      0.05951201147219      3.05288899621217
  C           0.13254119449549      0.35155507137644      4.45735128461816
  C           1.49088081270009      0.07616547552895      4.31054171854890
  H           3.09027304158957     -0.14203090043546      2.90505584101126
  H          -0.32619143694784      0.39350385837120      5.43149789785607
  H           2.10014476236160     -0.11350668894351      5.18073648353426
  P           0.73178207020010      1.17064813802475     -0.58623919635496
  C           1.24533042829404      0.58891246853634     -2.31596979208061
  C           1.23707808430284      2.99819567480516     -0.33978667292087
  P          -2.91231737962597      0.22642884783536      1.91432548089407
  I          -4.84916199721899      1.69614307253271      1.73941008594986
  I          -4.00321202156041     -1.73951872002030      2.94982899595870
  C           1.74662091437542      0.21919831653869      0.57817684554307
  H           1.49635680374508     -1.07558429363248      0.23200640499736
  H           2.82701055872140      0.31600614354831      0.49582641237658
  C          -2.07361184388052      0.94783458649658      3.40647605833079
  H          -2.51977482686421      0.64756952380643      4.35845569921266
  H          -2.15857830110184      2.03925801989092      3.30604532027088
  C          -2.36786924310703      0.50581049811995     -1.12758389579733
  O          -3.08876624489120      0.56925639351250     -2.02037680740189
  H          -1.65250669785200      1.99334302233577      0.58038723057791
  C           2.73106582847536      0.24131397099763     -2.39182709137274
  C           0.44145386621834     -0.67723408341003     -2.62350475822606
  C           0.86175287218648      1.63632750531774     -3.36141589186359
  H           2.95138317610156     -0.61801125683296     -1.76319337937242
  H           2.97863184589052     -0.02486176810033     -3.41875388374132
  H           3.36845615857150      1.06952624587151     -2.09773837726243
  H          -0.63176751995244     -0.48989795079794     -2.56034060886284
  H           0.66131605198892     -1.01189957727074     -3.63624371789756
  H           0.70735564142025     -1.48529363170033     -1.94678941256793
  H          -0.16971433033251      1.95591889325647     -3.21306225124059
  H           1.51498180262993      2.50381619809857     -3.33709546569874
  H           0.93732715466279      1.19720484572428     -4.35572269423619
  C           1.12965706699416      3.29244182914398      1.15962019935314
  C           2.67285523090701      3.28967695068748     -0.77100658466185
  C           0.24408696012359      3.90646689860815     -1.06759763911128
  H           1.84880347985316      2.71375788909487      1.73751529355864
  H           1.33091192163839      4.34789190224905      1.33888855609830
  H           0.12453094676406      3.07872982187164      1.52262446705453
  H           2.80396027224763      3.20782559679577     -1.84578969630848
  H           2.93008637485350      4.30938320077975     -0.48494097525244
  H           3.37259201377184      2.61866758890467     -0.27513902483157
  H           0.44142488131457      3.96159001908565     -2.13248534215501
  H          -0.77393530218633      3.54238707219889     -0.91916293285789
  H           0.30492892473277      4.91684129762144     -0.66565774121905
  C          -0.25067273697705     -2.26922123836739      0.30743603438262
  O           1.03189586330065     -2.21755538131890     -0.06562068452181
  C          -1.12639412373993     -3.07394744344738     -0.62997631982462
  C          -2.48249268634287     -2.81770423464125     -0.76808922246011
  C          -3.26600242671202     -3.59985695126836     -1.59458692542777
  C          -2.69546068683587     -4.64861558877146     -2.29678392257632
  C          -1.34195105954107     -4.90712526899333     -2.16877173961490
  C          -0.56073067861249     -4.12560928833756     -1.33726434989289
  C          -0.43022442033083     -2.80008147329983      1.74025027168157
  H          -2.93680782057864     -1.98535514112943     -0.23461977438765
  H          -4.32027577090521     -3.38810812556769     -1.69432307131390
  H          -3.30631013395204     -5.25838257309066     -2.94577560718023
  H          -0.89111481176003     -5.72059422655915     -2.71798777776384
  H           0.49759599812219     -4.31001937104475     -1.22957701847483
  H           0.07496388733347     -2.16546726378874      2.46828216042339
  H           0.03128821889530     -3.78557382383557      1.77896220342354
  H          -1.47952403604901     -2.90540685750281      1.99959086626300
