67
Coordinates from ORCA-job TSA2S_3S E -96.333728510580
  Ru         -1.50005885930528      0.34236522989154     -0.44517568057574
  H          -1.03121824756063     -1.37616552700951     -0.42311617120851
  N          -0.44338853541172      0.43024338993691      1.34885208116794
  C           0.89896874442153      0.22633637730389      1.29749305952876
  C          -1.05575452775101      0.54481860776230      2.53093692690602
  C           1.63542589134077      0.12163015536596      2.49188152832005
  C          -0.37343886466225      0.44088328923851      3.73066019084115
  C           1.00032700157132      0.22143206407339      3.70349503519673
  H           2.69951762945105     -0.04418396023452      2.43132122892640
  H          -0.90385838779081      0.53531113982907      4.66386820392743
  H           1.55350983596531      0.13885907356063      4.62615118976206
  P           0.60392974400556      0.90574912796198     -1.30062710205009
  C           1.23789242933869      0.20215341663148     -2.94314827770155
  C           1.10378251020943      2.74749659722097     -1.15251757022342
  P          -3.29926224088318      0.39610268419128      0.92311318697050
  I          -4.68046814284881      2.38079304857363      0.49064480104706
  I          -5.16932521881147     -1.04925007649327      1.67272538534746
  C           1.51947906887769      0.05135804591249      0.00633397440113
  H           1.27819307499204     -1.27559686343589     -0.27776436454229
  H           2.60279669085946      0.15179536480517      0.00289504078221
  C          -2.52622674097439      0.86341604568070      2.55062584969955
  H          -3.01066892373031      0.36434099648860      3.39504253553718
  H          -2.64136112660828      1.94667118137114      2.68840348835925
  C          -2.47314219450750      0.20883565334676     -2.01344048931541
  O          -3.14166279421408      0.13653424472438     -2.94683128652224
  H          -1.72837424224910      1.84568672880657     -0.40661719369948
  C           2.71750108156501     -0.17168519066995     -2.87498178681903
  C           0.43358368233449     -1.06949323144726     -3.22306759848135
  C           0.95819673035703      1.17564385225090     -4.08804301922004
  H           2.86966467902052     -0.98780953342903     -2.17287399308594
  H           3.04140241731722     -0.51198539865083     -3.85786864448699
  H           3.34530815232567      0.66597989188817     -2.58724740960883
  H          -0.63378212827683     -0.85049901159045     -3.28041645034934
  H           0.74061794506384     -1.49224183880836     -4.17882038731003
  H           0.61625919614614     -1.81898034536885     -2.45618199015656
  H          -0.07502097823634      1.51961422171609     -4.04567849638996
  H           1.62413577279022      2.03343281545377     -4.07560907128338
  H           1.10292955594895      0.66314254034022     -5.03872370926118
  C           0.89358564572612      3.15657341385172      0.30884634713263
  C           2.57237253826159      2.99268886640005     -1.49450139881527
  C           0.18463180036163      3.60943325687801     -2.02018912395796
  H           1.56512913956246      2.62162350058493      0.97860235697968
  H           1.09148667242631      4.22198420552712      0.41938002752039
  H          -0.13592924061721      2.97667789505838      0.61943027156573
  H           2.78383051890872      2.82663501092263     -2.54637809726747
  H           2.82092684914765      4.02952805249055     -1.26899647769062
  H           3.22348308004851      2.35730017667682     -0.89622287481855
  H           0.46292738877687      3.58087973685331     -3.06782910607824
  H          -0.84855124697653      3.27272820126898     -1.92391897176415
  H           0.23379055375955      4.64649879557062     -1.69151097953577
  C          -0.45511325550346     -2.45838503937405     -0.13529648485501
  O           0.81217594770285     -2.42133183312908     -0.54694437642568
  C          -0.61233183984018     -2.61416949734914      1.36623048473969
  C          -1.86472729293979     -2.58004753805560      1.96104007161569
  C          -2.00839575327605     -2.74734826391528      3.32474553214857
  C          -0.88852313861470     -2.95417458457248      4.11381588355737
  C           0.36329639593264     -3.00936504773605      3.52703912155254
  C           0.50243406317523     -2.84343774204204      2.16044028184727
  C          -1.26040509099748     -3.52984049230795     -0.87947786384026
  H          -2.73648652112864     -2.45572328053934      1.33387711575493
  H          -2.99392603104765     -2.72592482201503      3.76847766186815
  H          -0.99530689954405     -3.08282215498232      5.18075344273292
  H           1.23881146883702     -3.18485662628166      4.13491349372360
  H           1.47402520554522     -2.89962868193926      1.69181046710757
  H          -1.15805129252320     -3.38844060566308     -1.95286278064620
  H          -2.31367904662284     -3.50710063464804     -0.61342481638403
  H          -0.84789029862051     -4.50268907472129     -0.61754222219706
