19
Coordinates from ORCA-job NEB E -46.629303990970
  C          -0.35852080685720      0.54093550021287     -0.45366802946555
  C           0.97171356110963      0.27830632533310      0.22170057682680
  C          -0.39883687154519      0.79426603792136     -1.95753778906616
  H          -0.79586205420058      1.43051380749250      0.03046503906710
  N           2.23788183836764      0.28063962365400     -0.38445949334908
  C          -1.12008867787052     -0.70793237022384     -0.01904498667374
  C          -0.49765976453196     -1.25888376353378      1.15346012306733
  C           0.12910381739975     -0.39067258405131      2.18028269944199
  O           1.03773122167714      0.46990568620596      1.55786260553040
  Br         -3.13017819681995     -0.32729132655412      0.51740961551473
  H          -1.25729361928450     -1.42264851020108     -0.82883861272461
  H          -0.88257353806870     -2.20676170493315      1.50637604844839
  H           0.70635316399921     -0.97056863601760      2.90835568110164
  H          -0.64732688978439      0.15365052727454      2.74404520476133
  Br         -2.25285191166717      1.19588116706884     -2.46044821802072
  Br          0.63585449901129      2.37680886602267     -2.43883737329933
  Br          0.12975964352971     -0.74660119830488     -3.02268673667955
  O           2.29011126033273      0.28834835981352     -1.60882341430250
  O           3.20268332520305      0.22210419282041      0.35438705982154
