19
Coordinates from ORCA-job NEB_product E -46.660524190030
  C           1.74303248332964     -1.12016575862953      1.09733203802649
  C           3.09904155248383     -1.13762458092413      1.79612562407917
  C           1.69761903312026     -1.07284943562724     -0.42751627956975
  H           1.29124291921330     -0.17136987494075      1.43000320968066
  N           4.27827205768021     -1.92549360035594      1.19026646294244
  C           0.92946145422092     -2.23647868473211      1.79993569346136
  C          -0.40508058234711     -2.55645219601098      1.22020735895582
  C          -1.53227439591677     -2.28536512227070      1.85393411371562
  O           3.29294182315077     -0.62337905500214      2.84548884134455
  Br          2.02786676950326     -3.90891314252629      1.89187210183146
  H           0.82253987959212     -1.93764095298061      2.84640121807324
  H          -0.41230500214252     -3.07428261488771      0.27235148433762
  H          -1.54827368370842     -1.79170666095361      2.81180047252192
  H          -2.48517785980511     -2.53896301834751      1.42582650446759
  Br         -0.05358620505584     -0.33357683117602     -0.95900394833249
  Br          3.02240044564237      0.23146941589186     -1.06599222617895
  Br          1.89658672894871     -2.75162339234798     -1.36825431919137
  O           4.25903110378152     -2.13212503483845      0.00413617720374
  O           5.12656147830884     -2.22325945934017      1.97798547263088
