21
Coordinates from ORCA-job NEB_reactant E -53.547067333070
  C           1.34889888507883      0.04854724927635     -0.17189954785355
  C           1.27648804131688     -1.20369971495339     -0.65517607403060
  N           1.86883805339844      1.20526254465329     -0.82226819573529
  H           0.96308696585677      0.23587471216321      0.82215889836967
  N           0.54833992876261     -2.20211973300767      0.21321875414181
  C           3.99933305109010     -2.22627577074957     -4.48887482188065
  C           3.10455312449088     -2.38857414202863     -3.52701032976689
  C           2.74020031499533     -1.30942348446682     -2.56021006805989
  O           1.73502177542594     -1.83668734865778     -1.70467365731771
  C           4.41210439320690     -3.24814309417719     -5.47470962706528
  H           4.51340805810138     -1.28045439803747     -4.61485758938662
  H           2.57464351172078     -3.31966616297251     -3.37959973401736
  H           2.37152728216470     -0.41502513570813     -3.08332715677068
  H           3.61113792805883     -1.00996257863600     -1.96074158397969
  O           2.31406733916988      2.07472965973135     -0.11278853783481
  O           1.80662857031086      1.25264422687017     -2.03699803823643
  O           0.59992991284214     -3.34166924163348     -0.14821064150555
  O          -0.01624927418100     -1.76766309028365      1.18035526676013
  Br          4.08503897231340     -2.55941418993113     -7.29553532959153
  Br          6.35234197103585     -3.56881355298315     -5.28982919148833
  Br          3.50726119484047     -4.95476675446779     -5.30922279475074
