25
Coordinates from ORCA-job P E -41.661302719770
  C          -0.97794456406805      0.66686047357207     -2.14350501674268
  C          -0.74014655093903     -1.75062559381118     -0.39530486995153
  C          -0.94570889268471     -1.81242505352169     -1.87540963447755
  C          -1.03470200180333     -0.74508345302622     -2.65330778213720
  C          -1.13000330092232      0.71914294819662     -0.61485260634059
  C          -0.26952265899374     -0.36394398473665      0.04106735362943
  H          -1.00174320205275     -2.80251391995864     -2.30467245433381
  H          -1.13855845332998     -0.85238357154299     -3.72518193507519
  C          -2.09394416438840      1.51968882236204     -2.74487135013886
  H          -1.67176760865191     -2.00922222046138      0.11740544730979
  H          -0.02697097161758      1.12790381181137     -2.43277233689184
  H           0.00859311125619     -2.49376889474976     -0.11372655292211
  H          -2.17382403920026      0.54625705100756     -0.33866867268525
  H          -0.34304805403466     -0.26583402340542      1.12949422730104
  H          -0.84069271952693      1.70553161449856     -0.25293371174593
  C           1.19848113442219     -0.17240454261343     -0.31432581708935
  O          -1.96572998455757      2.66755981634876     -3.05283129222213
  O          -3.27322698918543      0.88901176254829     -2.86297607873767
  H          -3.19928398645798     -0.04603679009797     -2.61546731306415
  O           1.92411733216050     -1.02408341650010     -0.75233310038203
  O           1.59697754548418      1.07506298671494     -0.04798806167981
  C           2.95716572461326      1.37497057299093     -0.33170867640078
  H           3.12349130249237      2.39049081185684      0.01748519265830
  H           3.14452823183822      1.30401278596365     -1.40496129376632
  H           3.61558376014771      0.67502200655381      0.18620633588621
