25
Coordinates from ORCA-job R E -41.565555984330
  C          -0.79256947615264     -0.23374867406210     -2.72278511565395
  C           0.98412802615474     -2.66617260247254     -2.48660900465715
  C          -0.25008151301916     -2.54775133798978     -2.01059655762460
  C          -1.05360825674271     -1.34123810694732     -2.01693715586355
  C          -1.31223568036731      2.74188816594103      0.27252577041324
  C          -1.22761200239540      1.44985475055147      0.55094970297067
  H          -0.72011047422802     -3.40469994419876     -1.54645317144184
  H          -1.91995554301299     -1.38399737924895     -1.36338587299712
  C          -1.57429939063950      1.01732464470657     -2.69444055768011
  H           1.50841293741677     -3.60458074442129     -2.44143891897530
  H           0.07604747921744     -0.17367746990305     -3.35910974173881
  H           1.51761427237526     -1.84379849488403     -2.93284304881776
  H          -2.22673857403784      3.28834236423018      0.41142654028625
  H          -2.06560196997478      0.89037839847612      0.94285742232966
  H          -0.47400551302547      3.28197045209298     -0.13371499509735
  C          -0.00487387978440      0.64175387522609      0.35704105066477
  O          -1.14588578033136      2.05646177797842     -3.12389733869044
  O          -2.81372423515417      0.96790814550685     -2.16536624935313
  H          -3.05625703303615      0.07746792548283     -1.87996519713432
  O           0.03863842319768     -0.55441445184858      0.54003371118936
  O           1.03934559762194      1.36162989826677     -0.05734541651921
  C           2.25134955367007      0.65908222259532     -0.28948390142469
  H           2.80610887148530      0.55252443174875      0.64470224062213
  H           2.81883363337892      1.25574524552467     -0.99992570030303
  H           2.03704052738380     -0.33239309235165     -0.69429849450374
