25
Coordinates from ORCA-job TS E -41.553950625600
  C          -1.05467193328963      0.27285787462266     -1.41904252569329
  C           0.45829373655853     -1.88885023969664     -0.26893061665065
  C          -0.78670165403025     -2.05868570541654     -0.76904890446549
  C          -1.52501200254673     -1.00879472395235     -1.36302447115207
  C          -0.92812378546560      0.71844673213823      0.80026221588690
  C          -0.17987843091057     -0.24590179217520      1.39528990977327
  H          -1.31709692657414     -2.98021741780540     -0.57134837166426
  H          -2.55406026568350     -1.22911079795043     -1.62467380980381
  C          -1.84308029461347      1.42065827329210     -1.92888480160430
  H           0.93579442272630     -2.66822860076166      0.30033975280114
  H           0.00717259017215      0.46168153752325     -1.42414186375008
  H           1.09784370278520     -1.09584221044898     -0.61056676822640
  H          -2.00115047911557      0.69931944268682      0.89398688456237
  H          -0.64068304770264     -1.06797391820387      1.92106750221839
  H          -0.48131145814868      1.65845859404001      0.52706210639854
  C           1.26114881129763     -0.08726383000186      1.65692288853931
  O          -1.33188592455482      2.38981997012827     -2.41995353198539
  O          -3.18147130209415      1.34363902955752     -1.79618438648586
  H          -3.45989832910998      0.52154390599745     -1.37161688664218
  O           1.88210350512936     -0.74428283251990      2.45616991454626
  O           1.81727315145638      0.88579984782159      0.91277835428421
  C           3.19767919099786      1.12653309441390      1.13764574710269
  H           3.46204710051198      1.97847625065141      0.51649108489520
  H           3.78746335823270      0.25055655441913      0.85802107910578
  H           3.37820626397163      1.34736096164050      2.19137949800976
