17
Coordinates from ORCA-job NEB E -37.331863239790
  C           0.91948995487180     -0.68342697167195      0.37711520584064
  C          -0.12865484857659     -1.31135754571822     -0.33588120918763
  N           0.71833201829051     -0.39981393722343      1.77292120109548
  H           1.92408943772251     -1.03887959379277      0.17588119327922
  O           0.25397330496937     -2.17506167495759     -1.29714433602492
  C           0.76785976772781      1.15910689581260     -0.35886685093713
  C          -0.55779455095227      1.46818812160454     -0.06151075101255
  C          -1.56972032210597      0.71948448420963     -0.69264984722084
  O          -1.33777758603450     -0.94738280184911     -0.26443316761895
  Cl          2.03639062408303      2.04515029082101      0.43259962838757
  H           1.04760005485367      0.88397648469301     -1.36966001502245
  H          -0.78262252516790      1.96329449823151      0.86971399154624
  H          -1.49260575468438      0.56117947944094     -1.76247337318872
  H          -2.58074892760536      0.86527584629694     -0.34123126153583
  O           1.67707051533730     -0.57173529849065      2.49354173346330
  O          -0.37370757710698     -0.02747753508222      2.13404017374349
  H          -0.52117358562205     -2.51052074232426     -1.77196231560691
