17
Coordinates from ORCA-job NEB_product E -37.375740689460
  C           2.55574963171979      1.44918215693161     -0.96130301476656
  C           1.62355617757490      0.42191224119401     -1.71663084223330
  N           2.64790989879389      1.09661454022846      0.46431766049596
  H           3.55761272167934      1.28848069649928     -1.38249639273030
  O           1.79291430995468     -0.83237128485334     -1.37859100585563
  C           2.10483289920670      2.88246894963585     -1.24226032108314
  C           0.75555065032437      3.24152009869456     -0.70985557052971
  C          -0.22904360775883      3.64626266039686     -1.49052384411090
  O           0.87387519247625      0.80220916298205     -2.55996428038892
  Cl          3.34954287294500      4.00292386880399     -0.55295553841192
  H           2.12658567478395      3.02983448877935     -2.32522465689497
  H           0.63665745687732      3.18392198504462      0.36166460491338
  H          -0.11819650593146      3.71174314828909     -2.55960722539288
  H          -1.19133277692461      3.90784511246572     -1.08735690780581
  O           3.09976277359569     -0.02162231918628      0.67718151455845
  O           2.27379228645454      1.85472087478323      1.30793296355585
  H           2.41243034422851     -0.95484638068904     -0.61482714331961
