17
Coordinates from ORCA-job NEB_reactant E -37.358983737860
  C           2.05407466067995      0.28956830517551     -0.13495373673177
  C           1.61656343256043      0.46341603022604     -1.41658699970827
  N           1.61058620660698      0.88849518265823      1.04834077031564
  H           2.84238682517335     -0.42815315155574      0.04253319220148
  O           2.04810395775643     -0.37590705945707     -2.37114619965620
  C           2.09817969622625      4.54279839023859     -2.12325057817794
  C           1.89918737412361      3.45017148041641     -1.40387166678762
  C           0.62105486805880      2.67173185298549     -1.45085613108142
  O           0.81843275497487      1.35209065918421     -1.96956660881793
  Cl          3.54916473168540      5.44932324415572     -2.05289832790095
  H           1.35655179663485      4.95460737318488     -2.79090844771213
  H           2.67335921123474      3.07912437452989     -0.74772699093551
  H          -0.08491313412797      3.11887802469357     -2.15190792646368
  H           0.17327740154766      2.62031007974236     -0.44965908604375
  O           2.32752519524607      0.76372274021043      2.02455277421649
  O           0.52836165519050      1.45941715527109      1.06868242144184
  H           2.53110336642810     -1.12959468165962     -2.00797645815828
