14
Coordinates from ORCA-job NEB E -29.679945730950
  C           0.25899648929743      0.46809300632868     -1.37001795306254
  C          -1.07754567953745      0.33537327906068     -0.98914088613958
  Cl          0.99297625370477     -0.90673568704780     -2.15848525122400
  H           0.59811555547051      1.40283989454849     -1.80294819709249
  I          -2.07869530399345      2.22502236677538     -0.60364678291795
  C           1.04931777080871      0.42014280519605      0.43665493123721
  C           0.54163408370587     -0.77445271723594      0.94511710549162
  C          -0.85166238133802     -0.87073815864797      1.14574497791938
  O          -1.52334623912446     -0.67919682879972     -0.39898813711251
  Br          2.92720246537738      0.56216623599692      0.14956217417216
  H           0.64914467500685      1.36678869006078      0.78372209533368
  H           1.11215324392325     -1.67997755487546      0.79884113271917
  H          -1.35059270892407     -0.03483581012469      1.62837308105740
  H          -1.24769822437731     -1.83448952123540      1.43521170961847
