14
Coordinates from ORCA-job NEB_product E -29.722704133580
  C           3.10958321107645      0.89887289725155      1.09494722151759
  C           1.61927352035138      0.88275977121011      0.91513401728488
  Cl          3.81887187521263     -0.35580963280105      0.03221600366365
  H           3.52367234876854      1.86263171130365      0.78402564590764
  I           0.71738888367409      2.69021315121568      1.71361124107559
  C           3.43789487575114      0.63064396399713      2.56793635501662
  C           2.91179597734912     -0.67641343339441      3.05083502028023
  C           2.10684027828224     -0.78519769990109      4.09172015367705
  O           0.93687403832945      0.04811060818210      0.44745901328968
  Br          5.39986227549860      0.68773891718234      2.79030504973929
  H           3.06600067062740      1.45656478762480      3.18046416632387
  H           3.23962118656729     -1.54351982557215      2.49558964280983
  H           1.78264550000742      0.07372125364710      4.65738348323408
  H           1.73857535850423     -1.74141646994576      4.41827298618000
