14
Coordinates from ORCA-job NEB_reactant E -29.706362449650
  C           1.93943490479689      0.23497234040507      0.15860594222316
  C           1.43446323198451      0.96799880862094      1.14224418565743
  Cl          2.65630877625643     -1.33740859545497      0.31344934450492
  H           1.92417320666340      0.59152298661361     -0.85651525534259
  I           0.58572019653259      2.83570108836560      0.61654743069149
  C           4.11700232550244      0.55974803501021      4.32644852893430
  C           3.50460861554650      0.16514821884300      3.22430175825752
  C           2.04223533198113     -0.16013387461816      3.18640533283000
  O           1.30027230587764      0.81800159306153      2.46038930613563
  Br          5.95667445538484      0.97037187355240      4.37714715855449
  H           3.62929249566056      0.66324377783739      5.28326161623113
  H           4.04078921876454      0.08500932442039      2.28951472589158
  H           1.61046122874312     -0.12273686278875      4.18953774142025
  H           1.88476370630542     -1.15463871386825      2.75766218401070
