20
Coordinates from ORCA-job NEB_reactant E -48.989128366420
  C           1.64684768701647     -0.04804045061906     -0.09545160049278
  C           1.21397601557390      0.06754453876730      1.16133358703999
  C           1.87077102827593     -1.39686907949850     -0.71024434761385
  H           1.86907741615571      0.81498499357324     -0.69458618969841
  I           0.88387325220238      2.02883013804777      1.93339229152034
  C          -0.08928695642908     -2.63665064129843      4.85167869180727
  C           0.00929947884530     -2.33128607770159      3.56791195148070
  C           0.16544032554929     -0.93312890464704      3.06368250275227
  O           1.04173351310725     -0.97305943900673      1.95294062783850
  C          -0.28349248617064     -4.00344482021718      5.40084611357985
  H          -0.04970804955480     -1.87300170108786      5.61674960679576
  H          -0.01951523642961     -3.08684593796873      2.79655794370649
  H           0.56824663595253     -0.27347804204082      3.84320173111732
  H          -0.81837404269853     -0.55139206285781      2.75161584522223
  F           2.90880155569961     -2.05225949372890     -0.12744902554760
  F           0.79080896075921     -2.20548054335813     -0.54736109693664
  H           2.08092448926646     -1.33480959639342     -1.78830107657577
  Cl         -1.82805936093879     -4.04927825304837      6.30649872145579
  Cl         -0.32198430290457     -5.27241278536942      4.17286520229091
  Cl          1.04062007672200     -4.36562184154630      6.54671852025761
