20
Coordinates from ORCA-job NEB E -45.567881949310
  C          -0.70202566871650      0.37929872932066     -0.71054623900699
  C          -1.01869992793794     -0.92102921294983     -1.12118164624680
  C          -1.77403815382994      1.28316700130624     -0.15137800992619
  H          -0.02689092410448      0.92466723454740     -1.36454886028695
  Br         -2.54550347509561     -1.80415935956623     -0.29361509060725
  C           0.61425890931365     -0.03024064837735      0.70502533654751
  C           1.48778524938388     -0.88458110415452      0.02799081719075
  C           1.00412545350154     -2.12092533253310     -0.46368728104801
  O          -0.13094749839780     -1.68644781862535     -1.59645176190590
  C           1.14149758211012      1.30807425321219      1.16294310874925
  H          -0.09225683697179     -0.46542682031278      1.40538760915330
  H           2.34619290136664     -0.44246100149279     -0.45796567213359
  H           0.37975454083745     -2.71269274718615      0.20083590054274
  H           1.68214058611319     -2.71861820591459     -1.05828679705436
  F          -2.12055862897391      0.98743284634852      1.11083137026613
  F          -1.37138078501537      2.56200773524818     -0.13347363845894
  F          -2.89757896352714      1.25602255929618     -0.87855260170304
  F           1.80460155607183      1.94072837882340      0.14287441031949
  H           1.86829937205582      1.16324050119837      1.97133510824945
  H           0.35122471181636      1.98194301181155      1.50246393735941
