20
Coordinates from ORCA-job NEB_reactant E -45.594413109980
  C           2.15015176017168      0.66957620728426      0.24425010898255
  C           1.94857251414254     -0.39587185464909      1.02362152309507
  C           1.04746589818014      1.49947426838084     -0.31664763481735
  H           3.13703729224998      0.99913154557344     -0.03507645529060
  Br          0.21996954963848     -0.97524418250978      1.52933932982511
  C           5.68071587620460     -0.13698112865001      3.15864993167587
  C           4.78387954754085      0.06750473928238      2.20826624193429
  C           4.23347109723567     -1.02473471674041      1.34337822948586
  O           2.83483946545363     -1.22476345962641      1.55576294107908
  C           6.24089533649207      0.93689469710211      4.03223808980715
  H           6.08159916717828     -1.12117409068757      3.35675353792527
  H           4.39274857955765      1.06106857587491      2.04177678655809
  H           4.68289060311581     -1.98500426071838      1.60614232152459
  H           4.41863143247739     -0.81769427541625      0.28208137858392
  F           0.27864369948386      2.07725077730036      0.62170776490347
  F           1.54333813988417      2.49559722940868     -1.06495711861781
  F           0.21123827793088      0.81051856491479     -1.11393424824473
  F           5.74005012608578      2.17104261765109      3.71511151139951
  H           7.33124807741546      0.99728742959166      3.92527088862818
  H           5.99131355956109      0.75042131663337      5.08436487156247
