29
Coordinates from ORCA-job NEB E -46.694458879740
  C          -0.13592346403003      0.40704000905198      0.74604828694858
  C          -1.46181471580379      0.10331963739713      1.08759200756355
  C           0.19513524704107      1.88078026984894      0.54830240460457
  H           0.61614767393842     -0.10001601365801      1.34047483747323
  C          -1.78335332289075     -1.09270733562289      1.95307467046933
  C           0.03360211886556     -0.37121268835049     -1.02249149360204
  C          -1.26839544420638     -0.59277988537793     -1.48599091015552
  C          -2.23657339346057      0.43408922659773     -1.25398304933104
  O          -2.44443944406202      0.49694478734534      0.32011993398542
  C           0.95991020943434     -1.56775623369419     -0.95864438973343
  H           0.51271338194998      0.52379749289671     -1.40069131908057
  H          -1.63575844935899     -1.61060245455288     -1.48745324204425
  H          -3.24568176733177      0.23470017302921     -1.59849042705536
  H          -1.92140325141358      1.44653482431039     -1.50167245080637
  C           1.68308501669846      2.15900057094723      0.38076122847625
  H          -0.14526589205526      2.39796297774464      1.44995832906239
  H          -0.36214772095645      2.30399059496197     -0.28754238939867
  H           2.24064814001149      1.76610880056090      1.22769499951449
  H           1.85068323592942      3.23242775992241      0.33239290854672
  H           2.08101654416331      1.71543484497295     -0.52787227754274
  Cl         -0.60209424429620     -1.30150003280820      3.24817569473587
  Cl         -3.38875677618642     -0.87118902535146      2.68036844788873
  Cl         -1.83842228623544     -2.63798305815247      1.01689710959416
  C           2.42221726802263     -1.21263633612890     -0.72216312003470
  H           0.87936788854900     -2.10266868455997     -1.90878157166533
  H           0.61708751412631     -2.24964258978690     -0.17873177727047
  H           2.79055147834570     -0.55438921363973     -1.50654035100058
  H           3.02784069317033     -2.11569778366439     -0.72778859519854
  H           2.56002376204164     -0.72135063423915      0.23697650505632
