20
Coordinates from ORCA-job NEB_product E -33.228289331810
  C           2.29873078449344      0.92931323827765      0.78598169034603
  C           1.09219152026079      1.44692456181378      0.04994521582088
  C           2.20221365651459     -0.60162553540463      0.85767992280994
  H           3.19420730663397      1.21859735009933      0.22632124630781
  Cl          1.30670995602895      3.11875709424394     -0.50493569742360
  C           2.34429635939956      1.66435575580145      2.14632496268009
  C           1.38360431016944      1.12373073641868      3.15203687118370
  C           0.30408008374970      1.77735546869062      3.53931427200500
  O           0.07446936125291      0.88773717177342     -0.17399782166066
  Cl          4.00631989554557      1.59927469553578      2.82933109724340
  H           2.15537888254446      2.72777758304049      1.97383455151145
  H           1.62832457786327      0.15805314310884      3.56902247897852
  H           0.05146757524871      2.74662651040075      3.14164299366459
  H          -0.37609004319657      1.36572439044764      4.26405932197718
  C           3.45090865788111     -1.27004659986484      1.41653629856201
  H           2.03301159042860     -0.96203267207707     -0.15970109775098
  H           1.32665628828630     -0.87870809415104      1.44570798244442
  H           4.33345360554447     -0.95645855989926      0.86403378942985
  H           3.35700716127516     -2.34962377282483      1.32764330739682
  H           3.59975847007556     -1.02643246543071      2.46361861447354
