22
Coordinates from ORCA-job NEB_reactant E -33.254939716090
  C           1.59993092211460     -0.29377280899860     -0.19968789700129
  C           2.30836559528683     -0.73815497528609      0.83724595718146
  C           0.26351017990892      0.36440053894938     -0.07338972316304
  H           1.99438047344523     -0.42439095050531     -1.19683701301197
  O           3.53483495394991     -1.33782923742436      0.70663433283090
  C           3.72601355468753      1.03633867326940      4.31535726302128
  C           3.78652382512579      0.13908349269140      3.33942831060504
  C           2.74940174550283     -0.92859794035968      3.17040458505813
  O           1.84617871501903     -0.64493070094498      2.10405243973298
  O           4.57293649918342      2.05673070191506      4.57691186896128
  H           2.93960432666253      1.01419214121672      5.05853785302157
  H           4.55840816983843      0.15861729677424      2.58654248340369
  H           2.10757968808803     -0.98803049624962      4.05186530226457
  H           3.22787459624519     -1.89925874491619      2.99658774539400
  H           0.01162562721859      0.48761159691887      0.97504164176225
  H          -0.50923290130805     -0.23713287202119     -0.55291108047279
  H           0.27250718412718      1.34165962207719     -0.55609392558152
  H           3.74736624605928     -1.41239182694708     -0.22899270674034
  C           5.65395899797984      2.24655729018870      3.69409441558015
  H           6.19804363333215      3.11312543034859      4.06554997372483
  H           5.30336649733457      2.44249388645610      2.67611308902671
  H           6.31522147019816      1.37447988284744      3.68534508440208
