22
Coordinates from ORCA-job NEB_product E -33.274663095260
  C           2.72714563364103      0.22876398587489      1.04458317018984
  C           2.44418372488692      1.43701126399185      0.13561108589596
  C           1.61523658694807     -0.80423394540218      0.87665001196332
  H           3.67080072284562     -0.20254792147512      0.68446617050994
  O           3.08259263025070      2.56350201314729      0.44390140655666
  C           2.89686698408603      0.62634737339637      2.52853556946028
  C           3.02493837266655     -0.59660264348630      3.39336772958497
  C           2.30531219800221     -0.80016002330827      4.48007037438962
  O           1.72311852414216      1.36566275884097     -0.81942250187491
  O           3.98167139337373      1.54811687000463      2.71884153820171
  H           2.01908205142618      1.20262540823491      2.84645642844172
  H           3.76221478932660     -1.32162349826309      3.07509787677086
  H           1.56572573442006     -0.09034503576842      4.81147968722440
  H           2.42157466970008     -1.68624460381434      5.08053005654256
  H           0.69652225747929     -0.44139537662495      1.33130404910517
  H           1.88294575491868     -1.75040696018494      1.33877364195116
  H           1.42958596994152     -0.96213007689205     -0.18221558412841
  H           3.57238247478789      2.47820977796332      1.29212722536607
  C           5.28575050863763      1.00799041869751      2.75345216336298
  H           5.95687649587941      1.86487789390671      2.77860371851186
  H           5.50774388246323      0.40524025865393      1.86761392994752
  H           5.43992864017642      0.40434206250726      3.65167225202673
