19
Coordinates from ORCA-job NEB E -30.492684771410
  C           0.35458997824117      1.31074745351145     -0.72927235382786
  C          -0.80768513780819      2.01501207163971     -0.34056063787562
  C           0.26912187653271      0.42012940445445     -1.82594310823991
  H           1.30658407332422      1.82767341739127     -0.66244576905855
  H          -0.65512596853169      2.95862520448572      0.20238317631300
  C           0.44165757015457      0.00935223200437      0.79901117165528
  C          -0.79822495220971     -0.63371794974656      0.60226872898182
  C          -1.96380541324940      0.06184793601822      0.86751873246179
  O          -1.94343804038407      1.47874777542126     -0.33452487045620
  O           1.65307358764347     -0.57721598362854      0.70680872744328
  H           0.49102569808683      0.76606387929348      1.57916076886945
  H          -0.84059911386023     -1.47099823885779     -0.07815933656496
  H          -2.00607753646515      0.72982863435210      1.71539520014714
  H          -2.90749276636408     -0.38008102823517      0.59214600896730
  N           0.19463904601510     -0.29200036398654     -2.72149808449681
  C           1.76416683955357     -1.81843885289997      0.02982782750170
  H           2.82386294938731     -2.06472636225196      0.05107696900345
  H           1.42644949633213     -1.74652291235110     -1.00481738037848
  H           1.19727781360143     -2.59432631661440      0.55162422955418
