19
Coordinates from ORCA-job NEB_product E -30.521755214740
  C           2.89663702151845     -0.82048147631646      1.42320249085473
  C           2.05988592177964      0.44426914898593      1.53091582356061
  C           2.71417536756246     -1.39183687309783      0.11319306299289
  H           3.95011406037783     -0.51708365657578      1.51316920389282
  H           2.16908460933984      1.11021808021800      0.65452282085654
  C           2.58182623786345     -1.81519299698781      2.58602575792542
  C           1.27671131709727     -2.51854605144669      2.33029143266690
  C           0.24674578853649     -2.44337220013718      3.15064553308325
  O           1.35946714565212      0.72237607607165      2.45616655788225
  O           3.67999323449558     -2.66011231485369      2.84847084429330
  H           2.49326455602389     -1.20883749425363      3.49585470570943
  H           1.21686627987052     -3.08625004807064      1.41117841230867
  H           0.28890405872400     -1.86994730337124      4.06140098803287
  H          -0.68230710279857     -2.94412681029681      2.93839670922293
  N           2.55094193424569     -1.83792667459273     -0.92728158300726
  C           3.86477363832221     -3.76009594960494      1.98414877776957
  H           4.81970832965007     -4.19711148055016      2.27063082670879
  H           3.90789384428516     -3.45508779473992      0.93384824771357
  H           3.07581375745389     -4.50765418038006      2.11091938753271
