22
Coordinates from ORCA-job NEB E -53.875667492820
  C           0.15080801886051      0.54843402307656     -1.03654733209032
  C          -1.20232692854674      0.64112173651586     -0.56112107710860
  N           0.40011759375556     -0.30441086227061     -2.07587815359630
  H           0.72558426235988      1.46952936546630     -1.07515074908755
  C          -1.60874860243906      1.94928551388230      0.12116786463231
  C           0.79454289699058     -0.25644454523688      0.64408497615739
  C           0.01334969699662     -1.42162731131024      0.78875789549265
  C          -1.32233121472984     -1.31579784241938      1.13393780619021
  O          -1.89449521164424     -0.39145381104877     -0.37853552932742
  C           2.26458345240081     -0.44864757243828      0.38685983855120
  H           0.63622739268166      0.56169956937309      1.33768291238258
  H           0.35757083149376     -2.32232638824442      0.29828064903288
  H          -1.64567454693430     -0.55189320564962      1.82461383953951
  H          -1.94757467553926     -2.19271140678643      1.09895811685170
  H           1.35801396458240     -0.45071475354409     -2.34975954131732
  H          -0.17966766896376     -1.13084345749549     -2.10276746188459
  F          -1.99363498882662      2.87310265631334     -0.77283164356573
  F          -2.61601091399015      1.78060975988422      0.97928618600469
  F          -0.59865559674334      2.51446409636834      0.81963040344315
  F           2.52352266788898     -1.42501548147998     -0.50139155184875
  F           2.86463163410705      0.65338160724836     -0.08888833736092
  F           2.92016793623948     -0.77974169020419      1.50961088890924
