22
Coordinates from ORCA-job NEB E -43.916432834150
  C           0.45214548531485     -0.05979673182863      0.65422205950839
  C           0.49937036407867     -1.48630314912068      0.65304087253416
  O           1.51484427423491      0.60742482756493      0.13102409339522
  H           0.01108226563519      0.40807499265379      1.53661150185725
  C           0.03573907427745     -2.26588277321393      1.71891887724324
  C          -0.99190423116855      1.18079522172583     -1.35146907685477
  C          -0.81638115726171     -0.06639389647606     -0.79963666029218
  C           0.00580868364884     -1.10967400320051     -1.53653407158957
  O           0.48351826664122     -2.04906513872521     -0.58657770309942
  O          -1.98005298091947      1.98151748722526     -0.92420511022248
  H          -0.31174351349121      1.56184467028732     -2.10554792080557
  H          -1.67147006951399     -0.45101309524009     -0.24609022663147
  H           0.85404887006779     -0.63216865083597     -2.04284874729913
  H          -0.59010145219346     -1.66966342185299     -2.26126098196749
  C           1.56414275998523      1.98625675073014      0.40868764489569
  H           0.72254938441219      2.50882829246197     -0.05851336016281
  H           2.49980231051105      2.34956902137056     -0.01102704296673
  H           1.54415212418038      2.17088405432861      1.48676783799630
  Br          0.47136138292799     -1.68860185576599      3.46767994699161
  Br         -2.45725483625095     -1.96363208402032      1.77782211248734
  Br          0.17137484672707     -4.13233696950727      1.48910486633545
  H          -2.01103185184351      2.81933645143922     -1.40016891135303
