22
Coordinates from ORCA-job NEB_product E -43.943722512610
  C           1.10955281929156      0.19450666023068     -1.37390592267151
  C           1.47463034134263     -1.27877355042009     -1.45133108303130
  O           2.34889874965483      0.79242742828083     -1.07619539821316
  H           0.38098040275937      0.39920089361881     -0.57324114589533
  C           1.28844811739227     -2.04913937703606     -0.16072738355704
  C           0.48588162053583      0.63723041235149     -2.71689210398775
  C          -0.65074040176237     -0.28737550792383     -3.06206044594782
  C          -0.62401445452916     -1.16161890826349     -4.04935121892576
  O           1.91366127886024     -1.82542377140344     -2.41793188898450
  O           0.02960113471324      1.96379614526678     -2.54788164288634
  H           1.27256870940178      0.58842915902078     -3.48410445463135
  H          -1.52462123098727     -0.17153719492402     -2.43327071747637
  H           0.24485346403883     -1.28179388982444     -4.67486458757698
  H          -1.46208053455575     -1.80424353646168     -4.25711638945789
  C           2.26449339973498      2.09025630058979     -0.51645840985181
  H           1.76675382632327      2.78208262470713     -1.19707555134153
  H           3.29394753699496      2.39795488846084     -0.34878146572939
  H           1.72743103130668      2.06586653210449      0.43786446129224
  Br          1.98838605900629     -1.11264593757359      1.36715071466205
  Br         -0.64450098559587     -2.24897437007059      0.02469484671832
  Br          2.09552240068485     -3.78965193262571     -0.30007282777981
  H          -0.47155328461119      2.21902693189534     -3.33034738472697
