22
Coordinates from ORCA-job NEB_reactant E -43.956074351420
  C           1.17969751265369      0.14219625440898     -0.18388985727903
  C           0.85969695937307     -0.92583640854919     -0.92858289079424
  O           0.36111701935201      1.20553822228300     -0.03727051965144
  H           2.13842335634621      0.18447164482698      0.32124107547183
  C           1.82669662732005     -2.04983479607145     -1.09400274703156
  C           0.36917018217116     -0.66550872951230     -4.74040335352577
  C           0.37101427002711      0.06075417479946     -3.62785651246738
  C          -0.66879624711275     -0.09654638656033     -2.56382103592316
  O          -0.30036487398671     -1.11490859031232     -1.61919440718668
  O           1.29389517157273     -0.63316768744507     -5.71391112810679
  H          -0.42414106687610     -1.36398292801212     -4.96892089243723
  H           1.18720683024107      0.74188639082212     -3.42090483147819
  H          -1.60754442546330     -0.46646851118552     -2.97835901157897
  H          -0.83871712864988      0.84413691467463     -2.03224256771374
  C           0.82049655077342      2.21052361100285      0.84155387333023
  H           0.05910131240523      2.98756728474283      0.83521959558315
  H           1.77313325418219      2.62753299928250      0.50102788963209
  H           0.93747854278334      1.82151231219603      1.85695370135923
  Br          2.69451687560042     -2.56424822028516      0.56785903087909
  Br          0.95115898229173     -3.59426396817436     -1.83684053918664
  Br          3.28046573424793     -1.52931004103462     -2.35289290711214
  H           2.02239456074741     -0.04584354189696     -5.47126196478268
