23
Coordinates from ORCA-job NEB E -44.948185012180
  C           0.48370123987917     -0.09144953601506      0.22725396600545
  C          -0.63135432458885     -0.94781025935125      0.67084021753402
  C           0.06141400647621      1.41216595266829      0.24620971014738
  H           1.32263287716730     -0.20958734021419      0.91771334933142
  C          -0.69431771219723     -1.42107360675727      2.09433376135119
  C           0.85177222623748     -0.61010049217235     -1.15434933929751
  C          -0.14760268637719     -1.11958714686778     -1.91087952911559
  C          -1.56352309826014     -1.05551622868938     -1.44935357664870
  O          -1.68806019647062     -1.26245536691454     -0.05936766018105
  Cl          1.61340212258318      1.14769664705863     -2.49563596602173
  H           1.87803070887407     -0.90367197796614     -1.29025424972649
  H           0.01687880645477     -1.42703084983411     -2.92878299621155
  H          -2.18671839734366     -1.82496167767684     -1.91280693005178
  H          -1.98615576048751     -0.07548095421586     -1.70573218830110
  C           1.23757716172607      2.29596124324831      0.62745018468281
  H          -0.74263789384202      1.54438506874675      0.97342047934129
  H          -0.30135296535112      1.69522143189790     -0.73980440225425
  H           1.60494933965630      2.04781735237994      1.62068226545891
  H           0.92506600581981      3.33719535252540      0.62554806564338
  H           2.04016615401066      2.17607779699901     -0.09349474953368
  F          -1.70234345444618     -2.26035550011068      2.32179109787199
  F           0.44002795447921     -2.04920018020080      2.45226786394611
  F          -0.83155211399971     -0.39823972853798      2.96295062602947
