23
Coordinates from ORCA-job NEB_reactant E -45.000303408040
  C           2.35162998530359     -0.26676192618379     -0.40855083627143
  C           1.57587438912821     -1.33970766930537     -0.53069813882332
  C           2.26645418349066      0.99838414009658     -1.20100972705403
  H           3.12208655882616     -0.29391060209215      0.34779834145686
  C           1.74173815753778     -2.52959775253502      0.39590887951542
  C           2.90169257079021     -1.50587910042289     -4.03344791319945
  C           1.99902808007814     -2.08252248148635     -3.25860391240097
  C           0.75984131466132     -1.38432308651482     -2.78567784011349
  O           0.53628290597038     -1.57204277058957     -1.39345050276064
  Cl          4.31639025973438     -2.30973931404394     -4.57645030327130
  H           2.80922599171121     -0.49564683166178     -4.40453190259875
  H           2.12653200809806     -3.09753699888689     -2.91082551056541
  H          -0.12443167322918     -1.83693376128623     -3.24643141487696
  H           0.79081649852447     -0.32153972313495     -3.04740157349993
  C           2.88174274762307      2.16732638792273     -0.43862390212697
  H           1.22224141554258      1.22067901915236     -1.42918649970936
  H           2.80066087756787      0.86596510074275     -2.14733840874373
  H           2.36416594963250      2.32015214678300      0.50502724193299
  H           2.80611109300151      3.08007246832752     -1.02420888825944
  H           3.93189863761482      1.97763483435424     -0.23075851400240
  F           0.64284192960401     -2.76637378597697      1.12471944303537
  F           1.99201858782832     -3.65746420015772     -0.29177575010361
  F           2.75225753095991     -2.38613409310074      1.26521763244053
