23
Coordinates from ORCA-job NEB_product E -45.001869878660
  C           2.43419605830833     -0.76416423902415     -0.95874801567852
  C           1.15971484530988     -1.43078704486709     -0.50766375569484
  C           2.27810656493392      0.75287133506062     -0.75745969728770
  H           3.27906590978899     -1.13079035427212     -0.36793341047231
  C           1.40021364143015     -2.68378107285816      0.38890962920209
  C           2.63700588128716     -1.22957447548320     -2.42567721016127
  C           1.75596057629397     -0.52912051890089     -3.40310567571844
  C           0.75931119188054     -1.12565298545770     -4.03066362212524
  O           0.04706484711340     -1.09878943488599     -0.79086009735179
  Cl          4.35563423475984     -1.00300534950050     -2.89672425604008
  H           2.47443182774504     -2.31082572717858     -2.47729018369621
  H           1.98714510622946      0.50938014992235     -3.58690106042398
  H           0.52057968182081     -2.16356597776868     -3.86671185759410
  H           0.13525744068851     -0.59583150978550     -4.72834948938137
  C           3.53453798124772      1.54836361395079     -1.08182479503505
  H           2.02367399525861      0.91190577915785      0.29370450180173
  H           1.43591678230826      1.10369868684440     -1.35461806726551
  H           4.38610897981977      1.16259882008792     -0.52672523780641
  H           3.38573154297487      2.58837432829006     -0.80182948221864
  H           3.77078249552094      1.50978301038644     -2.14026184244247
  F           0.27170260172627     -3.27995034946633      0.75835224733820
  F           2.14747792117840     -3.59578563219816     -0.25619231375970
  F           2.07067989237516     -2.35215105205339      1.50257369181164
