18
Coordinates from ORCA-job R E -24.846191624550
  C          -1.18249306339783      0.07872357806038     -3.06625251143488
  C          -0.15762979559098     -2.39145073349492     -1.63162641340643
  C          -1.42123361683217     -1.97621822634934     -1.70021198499647
  C          -1.91867458383375     -0.79301586928204     -2.36029447242378
  C          -1.07861152109022      1.06890559930385      0.17849410033584
  C           0.08450669073035      0.46244215240067      0.27998856604777
  H          -2.18419525029141     -2.56986782616795     -1.20990977194158
  H          -2.98129479731950     -0.60619748611443     -2.26255717558448
  N          -1.66421423428200      1.25445293444238     -3.59215730002761
  H           0.10584578157810     -3.29489989993231     -1.10890820632070
  H          -0.12053711926803     -0.06187743969938     -3.20040252711041
  H           0.65594563909971     -1.85918564379226     -2.09292941133559
  H          -1.91077282456399      0.75499216028422      0.78504137383408
  H           0.29550151406689     -0.36094414356452      0.94212445024866
  H          -1.24715023862369      1.88008000655214     -0.50835938617087
  Br          1.57951265677885      0.96034895947647     -0.76001797732967
  H          -2.66768905859578      1.32408098037443     -3.67097052066700
  H          -1.15748617856456      1.64560089750260     -4.36902083171689
