16
Coordinates from ORCA-job NEB E -31.289975646770
  C           0.25515360304498      0.62319014288989     -0.30610824917310
  C           0.40237377050845      2.01061271636668      0.03837196815874
  C           0.37622572371758      0.11083636992292     -1.64947678282255
  H           1.30226087009677      0.66802981119064     -1.91994897453770
  C           0.80680007088390      2.85028784436674     -1.08090920484262
  C           0.18538483562814     -0.39155245033656      0.75659117918957
  C          -0.68482141543624     -1.54443352104054      0.44519705805948
  C          -1.56547350252954     -2.04507545724795      1.29488234360928
  O           0.16254300679748      2.46898801561215      1.14393544618924
  Br          2.08293430503590     -1.09773460081329      1.17102344351413
  H          -0.06910983032308      0.11739678888946      1.69155164326937
  H          -0.56737300850017     -1.96204815124874     -0.55171372678214
  H          -1.68686305911592     -1.65163214337725      2.29096282069820
  H          -2.19113902458228     -2.87757049724260      1.02612867198995
  N          -0.00811309283337     -0.75137350764856     -2.39211242297369
  N           1.19921674760740      3.47207863971700     -1.95837521354616
