16
Coordinates from ORCA-job NEB_reactant E -31.389191553350
  C           1.64045403247574     -0.00311925913778      0.20052981899546
  C           1.44383043895380      0.54600212253522      1.42283619834431
  C           1.47505837329514     -1.34289529511329     -0.17139636494392
  H           1.96801842735504      0.64805067109294     -0.59927492792200
  C           1.69569421929282      1.94875074364419      1.53304625654917
  C           2.38011791766760     -2.69529049809700      4.03008244962356
  C           2.03548103056437     -2.16580587202574      2.86937203899122
  C           0.76903442400276     -1.38005919167457      2.69403109438173
  O           1.02633051431413      0.01341938410920      2.57830685227174
  Br          3.97049816670630     -3.67429784944543      4.26984098887691
  H           1.78155540898010     -2.62478579758306      4.92513411440071
  H           2.67239937909655     -2.26667029423685      2.00229802045467
  H           0.14078754724451     -1.46268791219653      3.58462792350913
  H           0.21419256294172     -1.74120567510361      1.82116932815196
  N           1.36471817420505     -2.43078462457047     -0.52432652043017
  N           1.90672938290434      3.07197934780277      1.58412272874551
