16
Coordinates from ORCA-job NEB_product E -31.379949817420
  C           1.69876514647890     -0.33501956701368      1.44435954786176
  C           2.55707138480568      0.89501304844196      1.76941124393938
  C           2.10338667256246     -0.92452399379470      0.18478034460230
  H           0.66536871754251      0.02981256170249      1.32594807768086
  C           2.78902214097412      1.71761729516969      0.59491807309741
  C           1.72883318056394     -1.35810596484002      2.58862822666373
  C           0.75650746073657     -2.46655368167733      2.38288661269599
  C          -0.13651948257255     -2.82070814144223      3.28876920077500
  O           2.95444915674980      1.16209314757616      2.86630737824168
  Br          3.56553438137914     -2.12447490243234      2.72280267599978
  H           1.56929697295368     -0.84686486176595      3.54099898767744
  H           0.84193381138653     -2.98805625105802      1.43869682569193
  H          -0.21692151793157     -2.31622749339326      4.23802257907426
  H          -0.82170371981407     -3.63147480939531      3.11590209478673
  N           2.42230969375373     -1.41626464947626     -0.79400882154322
  N           2.93486600043111      2.37113826339880     -0.33202304724504
