17
Coordinates from ORCA-job NEB E -38.268179010530
  C           1.16587691189100     -0.66399520563537     -0.29771614471181
  C          -0.17610964422817     -1.03702539597742     -0.20633073549245
  H           1.81021284941263     -0.95290954753502      0.51983588042761
  H           1.64319047357438     -0.71500346949904     -1.26656487010302
  C          -1.03301700418486     -1.12731418094534     -1.44779270992184
  C           1.08798370994027      1.18578052984483      0.16128748663354
  C           0.40006118834979      1.17953560020351      1.36970655541540
  C          -0.91911000332127      0.61601635713880      1.38954561189242
  O          -0.80126679945017     -0.88763865791009      0.93378900503479
  F           2.38426326633959      1.55628059279691      0.19528445889043
  H           0.62429095215806      1.54675428109126     -0.75267212475050
  H           0.98772861738064      1.16249070465488      2.27595890578078
  H          -1.61302957913701      1.02915159394590      0.66004012604168
  H          -1.36803133107339      0.53118521272854      2.37290091573910
  Cl         -1.42195478488824      0.52113342788053     -2.09417768926195
  Cl         -0.20534980862359     -2.01479651982872     -2.73590342946234
  Cl         -2.56573901413966     -1.92964532295415     -1.07719124215184
