17
Coordinates from ORCA-job NEB_product E -38.302426510190
  C           2.00858913584346      2.03080829703935     -0.65812106687258
  C           0.70492237259020      1.96080428684709     -1.40941091267837
  H           1.99171767426263      1.24571485997097      0.10129981676878
  H           2.85799904245866      1.86621196025728     -1.32000240743539
  C           0.80348781515005      1.28446357598646     -2.79282324646560
  C           2.15541384639496      3.38906735513589      0.04948170701732
  C           3.28614813923164      3.36978230932008      1.03318369742108
  C           3.11671448403989      3.30914972865971      2.33970830694571
  O          -0.33677753547460      2.38373522441855     -1.00796772305092
  F           2.41071914290579      4.34113236817622     -0.91889966486071
  H           1.20709042425284      3.67311301969468      0.52170343399952
  H           4.27018244041042      3.40870149872866      0.58819293844707
  H           2.13506601090221      3.28061531398147      2.78339532961454
  H           3.95153388947800      3.28220119022383      3.01770248164757
  Cl          1.78791034122526      2.34352436470103     -3.83200401550521
  Cl          1.60008707821792     -0.29507062589423     -2.62812417830545
  Cl         -0.79480430188933      1.06524527275298     -3.50741449668735
