23
Coordinates from ORCA-job NEB E -55.149945338830
  C          -0.09430195758762      0.72610765208640     -0.51243759621215
  C           1.14942925768392      0.05729232063446     -1.14128925221850
  C           0.18608409714337      2.18214061989332     -0.15034911885932
  H          -0.74639971994624      0.80724796957145     -1.39873587377773
  C           2.45230100732021     -0.11705854325219     -0.48227703984202
  C          -0.96524678997575     -0.15309652744731      0.42984008696783
  C          -1.04235795891606     -1.50797729427623     -0.24419804608804
  C          -2.06251481850327     -1.88613427588427     -0.98783123314005
  O           1.13286683573793     -0.11708862840630     -2.35500337035272
  C          -0.60881696140782     -0.34439047217140      1.90694922661253
  H          -1.96979853380676      0.28851902661861      0.43545328220915
  H          -0.18322301561321     -2.14823432532591     -0.10895860126521
  H          -2.92500043282783     -1.25822554736253     -1.13899429214021
  H          -2.07383228475769     -2.84238231647240     -1.47883380355820
  Br         -1.47726330764215      3.10332654797388      0.33822829661442
  Br          1.50842180699355      2.48449326896802      1.25208243718204
  Br          0.87137694329270      3.10319723314070     -1.75166537265658
  F           3.41434921011255     -0.49288252302643      0.60952375255027
  H           3.09069573016987     -0.39898066737093     -1.31080769277938
  H           1.78962769929505     -0.06554704560054      0.47883529823106
  Cl         -0.95623602239783      1.07657314745923      2.91837487161701
  Cl         -1.59934138470466     -1.69369887389868      2.55350852817472
  Cl          1.10918060033774     -0.80320074585094      2.13858551273110
