23
Coordinates from ORCA-job NEB_product E -55.336925779740
  C           1.27070447215147     -1.58078138539922      1.06353465419842
  C           2.60704738557447     -1.95623630643693      1.72951548344059
  C           1.19948778659479     -0.06062435148686      1.01560243154401
  H           1.31340755432584     -1.92739423878671      0.02313137824218
  C           3.55548906772668     -2.78058080802932      0.87579115406873
  C          -0.01671490607536     -2.19298687393908      1.69122656812793
  C          -0.73347818973992     -2.97013673287792      0.61357152321579
  C          -1.92625503392436     -2.65179489753458      0.15100221806355
  O           2.95177737584482     -1.51181566061583      2.78827480979677
  C           0.20694085726573     -3.10770877239998      2.90145112484536
  H          -0.67299231648856     -1.38948449012287      2.04633449099807
  H          -0.18516507017520     -3.81663770284873      0.22471881330192
  H          -2.48442575593837     -1.81139254525193      0.52827568871638
  H          -2.39287127474778     -3.22400713124632     -0.63070052109738
  Br         -0.32833723092228      0.50953879082375     -0.06185869706834
  Br          1.05111083720073      0.77707800014391      2.75415249995662
  Br          2.80094903293651      0.63975301162293      0.13328332208587
  F           2.92085207887526     -3.44531066128411     -0.13286754816655
  H           4.08322251832451     -3.51226576189119      1.49367083009510
  H           4.28579479465294     -2.10213838544595      0.41425224408715
  Cl          0.68163846788952     -2.22114618914823      4.36772799207086
  Cl         -1.32865875764653     -3.94639206046309      3.26657510777576
  Cl          1.43027630629509     -4.34433484738175      2.55023443170117
