23
Coordinates from ORCA-job NEB_reactant E -55.330036529390
  C           1.34944530518257     -0.50948145038437     -0.13327472828374
  C           1.95482181120114     -1.60848481168864      0.35339202645581
  C           1.94781129862688      0.48008953502933     -1.04136004873528
  H           0.32405933032563     -0.30707653902739      0.13511674454144
  C           3.38651238511151     -1.99446924356279      0.05906010808592
  C          -1.10659573280973     -3.44898498660940      3.48222523069917
  C          -0.30745944906962     -3.52130393468158      2.43025015710301
  C           0.03627710819008     -2.34649677233400      1.57049069947613
  O           1.38542660235926     -2.49583754397916      1.17214345923723
  C          -1.50406125590146     -4.59134673600444      4.34520816992424
  H          -1.55437790387512     -2.51252355110060      3.78644635301795
  H           0.15189873153705     -4.44995529133638      2.12585749962348
  H          -0.10464225571845     -1.40433458600340      2.11495557442407
  H          -0.61516543225745     -2.34581665601771      0.68290890345801
  Br          0.71186187780054      1.95414395083204     -1.34984433772863
  Br          3.62284305371077      1.27882761845498     -0.34933353913587
  Br          2.38163461031486     -0.28179976725403     -2.83720031923716
  F           3.61097935487447     -3.28923907827971      0.41418386900289
  H           4.08145383823864     -1.37579396270649      0.64129653085761
  H           3.61847029668884     -1.90959305221543     -1.00855800946046
  Cl         -3.28483978494879     -4.77245237491893      4.28209422741820
  Cl         -0.77247163702855     -6.13026666136017      3.88035712953744
  Cl         -1.04278215255309     -4.23350410485175      6.03538429971853
