23
Coordinates from ORCA-job NEB E -63.183798540410
  C           0.39401980837905      0.38978942667807      0.79950927030838
  C          -0.94254683189013     -0.04495323794769      0.96599130143036
  C           0.66917977329547      1.85785761392122      1.08073159150988
  H           1.12612465967442     -0.20519183925486      1.34314462732620
  C          -1.27173785621265     -1.35069714887766      1.66762910047432
  C           0.72217436797904      0.07428775832878     -1.06714105055412
  C          -0.50535783633686     -0.23911929927609     -1.67263182624235
  C          -1.60264357249993      0.61709726986413     -1.35146856285947
  O          -1.88442549429897      0.39156783664557      0.19640905617652
  C           1.82746383820092     -0.93552869233287     -1.24338519989003
  H           1.08651718174593      1.08499163334767     -1.24513976499702
  H          -0.73658539495462     -1.27879153116357     -1.86794610657719
  H          -2.55868129457192      0.34644701134218     -1.78623711369519
  H          -1.40582377884872      1.68390034115160     -1.42170375791832
  Cl         -0.61646028509049      2.97242470476888      0.59414687280852
  Cl          0.81759727433875      1.97851296184056      2.87237457703448
  Cl          2.19863456728420      2.46618613531160      0.39427481861966
  Cl         -1.94943700687586     -2.52275349358389      0.50423132178166
  Cl          0.09256315503859     -2.09049096218082      2.50572573209409
  Cl         -2.53719458803372     -0.97622128007131      2.87704692974070
  Br          3.42419046044939     -0.56595101721811     -0.19635784300340
  Br          1.28376300001620     -2.75381967875255     -0.81254930851685
  Br          2.36866585321191     -0.89954451254085     -3.13665466505084
