20
Coordinates from ORCA-job NEB_reactant E -41.831306514410
  C           1.65916810230055      0.15655741694086     -0.25581608737365
  C           1.87433476300056     -0.46771133434434      0.90695180947070
  C           1.46174711007909     -0.56822573828169     -1.54481295526277
  H           1.64102125131566      1.23067928243746     -0.31756782236307
  C           2.10771787059899      0.33368866017612      2.16328727853694
  C           3.77015926179912     -2.29508547699628      3.95071854502376
  C           3.46995623232050     -2.47660584499299      2.67514873904492
  C           2.05894558161203     -2.51883121149182      2.16316611121308
  O           1.89693115318539     -1.81998975534453      0.93693972639991
  Cl          5.38408105367259     -2.28499855781820      4.53650642224054
  H           3.02545368324220     -2.15114661093248      4.71967283717293
  H           4.24035697324943     -2.61420170197474      1.93004852868599
  H           1.35212823720327     -2.16939294954980      2.92112271921023
  H           1.80535412366995     -3.55186829635215      1.89988681654402
  F           0.39906533152492     -0.06572825422671     -2.22493537217593
  F           2.53257395511595     -0.39516722372880     -2.37152202519570
  H           1.30927314709940     -1.64862320469219     -1.41682962797556
  F           1.10077013156202      0.13366265378687      3.08176541028814
  H           2.11630206955480      1.40104198941340      1.93348174724951
  H           3.04185996789358      0.03964615797201      2.65438719926599
