19
Coordinates from ORCA-job NEB E -41.620958289890
  C           1.19211837409087      0.67030315002908     -0.30854511520511
  C           0.39207865847401      1.79478043248452     -0.01413390614796
  N           1.27952100948969      0.24418821726490     -1.60293823677076
  H           2.09648639221940      0.52694254211239      0.27241009178365
  Br          0.78576350638820      2.62180365256045      1.72438901362568
  C          -0.15135554991647     -0.57505200782214      0.68889678276874
  C          -1.35281615376482     -0.32408922408589      0.03099731029030
  C          -1.97303738534811      0.91899429194395      0.19600298693598
  O          -0.73557562971902      1.99993562070746     -0.50283543536582
  C           0.48813166920215     -1.91924713215219      0.50894898009550
  H           0.01006302887244     -0.18310479850286      1.68616249116042
  H          -1.59258748217554     -0.91530837186168     -0.84238958101649
  H          -1.97389782689745      1.37357614674177      1.17858304527290
  H          -2.83286636180825      1.15679189955219     -0.41054819492181
  H           1.79690016124770     -0.60010813554081     -1.78533941676583
  H           0.45140158476166      0.36548697781306     -2.16760564041426
  F           0.43651876051455     -2.36305545904035     -0.76133216006808
  F           1.78762399233304     -1.93043220441023      0.85051914977211
  F          -0.10447074796404     -2.86240559779363      1.25875783497086
