19
Coordinates from ORCA-job NEB E -36.060626026390
  C           1.02243237187300     -0.35729104639383     -0.55790942088449
  C          -0.20005863114843     -1.00051297383592     -0.90883811212848
  H           1.71458258260005     -0.98292510694134     -0.00839249268281
  H           1.51971689013344      0.19033928987062     -1.35029363760944
  C          -0.94664216494540     -0.64506354348047     -2.08966152269881
  C           0.61906065190200      0.85080112001519      0.67024319943605
  C          -0.07891686116282      0.07693997857769      1.63766846091487
  C          -1.23049691810104     -0.68991526392155      1.22671203321513
  O          -0.87532659739243     -1.60798500441364      0.05316287392441
  N           1.84349917938429      1.44817815761937      1.01672311024279
  H          -0.00112877190248      1.50420417205195      0.05547039158143
  H           0.45471019379627     -0.22963471903672      2.52642109145153
  H          -2.03835897604141     -0.07854761502073      0.81593296873184
  H          -1.60832095929158     -1.37255629370538      1.98241826484759
  Br          0.07218996374794     -0.35562946492405     -3.67513137529184
  Br         -2.43645436447694     -1.78899125254175     -2.41420329751296
  Br         -1.93708238125573      1.40026495988242     -1.73499159148319
  H           2.18930820972561      1.20570138618246      1.93276293379740
  H           1.91728658255566      2.43262322001568      0.82190612214898
