19
Coordinates from ORCA-job NEB_product E -36.090323654660
  C           1.97525300560787      2.04578757030690      0.56590083216708
  C           0.81510906500450      2.54931742898435     -0.23460702728803
  H           1.79724620888156      0.99217014398464      0.79342926945544
  H           2.92271154001107      2.14434234194994      0.03543299494563
  C           1.14280834752136      3.06118132021158     -1.63778082866007
  C           2.02934807070000      2.83361626289066      1.89795599323389
  C           3.05222083345310      2.21803622625915      2.81356620347704
  C           2.78289378569066      1.75297174380281      4.01845002905295
  O          -0.32276855534382      2.55809285552990      0.13486704401428
  N           2.31054586417233      4.22693123463314      1.58309139594798
  H           1.03672810844848      2.78748814634423      2.35830301363950
  H           4.06508437702598      2.21549641354050      2.43006366946857
  H           1.78067001536433      1.75366480095958      4.41466385624965
  H           3.54930368673347      1.34985966633480      4.65807929953855
  Br          1.80378951493701      1.52365987668430     -2.65249101001211
  Br         -0.44966639827645      3.74989163407993     -2.48288258124442
  Br          2.50571958618998      4.43187915580606     -1.61908398887155
  H           3.28907892516078      4.34792613361435      1.33946698072609
  H           2.11512401871779      4.82268704408319      2.37827485415953
