19
Coordinates from ORCA-job NEB E -32.382137307840
  C          -0.25066124088870     -1.05775770619014     -0.74375258110321
  C          -1.13818699763643     -0.06113019980675     -1.13046971019983
  H          -0.60955119087574     -1.82593206024414     -0.07752133625944
  H           0.45095498027222     -1.39246049316175     -1.49662383016448
  N          -0.78117719748407      0.75241932582245     -2.26642199847409
  C           0.82871019361862     -0.07074696389107      0.55861762519842
  C          -0.18349269533982      0.42719213403070      1.36466248473146
  C          -1.17872652229932      1.31586674962066      0.79479667701638
  O          -1.93940476800641      0.50334772963026     -0.25287904745289
  C           1.80867072112628     -1.06951363436047      1.10819153388529
  H           1.26888608730601      0.60602124492799     -0.16765218236291
  H          -0.45770569450571     -0.12606699910574      2.25217564612995
  H          -0.77712592732540      2.16781750703076      0.24251095819702
  H          -1.95785794800558      1.62924812923436      1.48270461603014
  O          -1.25621730623356      1.87022511485023     -2.32676510199353
  O          -0.02625478169030      0.26634032427516     -3.09258506729505
  H           1.32614888752427     -1.75818120657425      1.79698058299028
  H           2.59506250620752     -0.54061809976068      1.64546621266004
  H           2.27792889423616     -1.63607089632760      0.30856451846647
