19
Coordinates from ORCA-job NEB_product E -32.409950355560
  C           2.59882873585673      0.26440993615661      1.12855801468486
  C           1.42129924644596      0.97258254451720      0.57866122772988
  H           2.25234053207612     -0.56929634262906      1.74069263048969
  H           3.22146622135027     -0.10109517075761      0.31035215864165
  N           1.80177465534633      1.98516425104270     -0.53511366792460
  C           3.44596278669137      1.23452124742305      1.99446423192683
  C           2.57356761385894      1.89140690544439      3.02460171732572
  C           2.34271849645608      3.18881189799240      3.08043942992488
  O           0.27476103710291      0.91616845335006      0.86868727765115
  C           4.57651488840579      0.45522843092286      2.66337449840797
  H           3.88022554328955      1.99700145181182      1.34143192674396
  H           2.12575719351506      1.22041626812209      3.74541726620243
  H           2.77807812434304      3.87542287560637      2.37209732401246
  H           1.71163245306186      3.62371951757632      3.83552010670707
  O           0.94233829811911      2.76382587570127     -0.84723947310580
  O           2.91847045672110      1.91180827069158     -0.99222576657949
  H           4.17801736774847     -0.31836701185884      3.31596197616572
  H           5.18226380744952      1.13069481633356      3.26218382189424
  H           5.21378254216177     -0.01132421744679      1.91643529910137
