24
Coordinates from ORCA-job NEB E -49.174414483120
  C           0.41317575440930     -0.44426484400814     -0.15227735005753
  C          -0.83577894105346     -0.30279934333653     -0.98380485143066
  O           0.10425180288696     -0.61535108283219      1.21351370891757
  H           1.01987811598671     -1.28382032363411     -0.51740630658497
  C          -1.24934428390455     -1.36342390554703     -1.94386149640119
  C           1.14054333494310      0.90610603530654     -0.31801995132167
  C           0.05130874209571      1.91143626812173     -0.44186740739394
  C          -1.32122562532877      1.62148781170870      0.05842472241372
  O          -1.84694310605548      0.45587596558234     -0.50063562301902
  C           2.13984940174796      1.26091168698825      0.80400342910029
  H           1.73434027023844      0.84617140492319     -1.23605671411180
  H           0.35644199826956      2.94310536639036     -0.31538115321905
  H          -2.02603545061298      2.42023969701070     -0.18484350924726
  H          -1.27121143199853      1.53015523570325      1.15594923226362
  C          -0.36434543441814     -1.89693595182125      1.55817321505111
  H          -0.42251432733716     -1.90467661917912      2.64467198537921
  H           0.32951054159105     -2.67396215247430      1.22112636420254
  H          -1.35458410162213     -2.09802748478744      1.13674695077157
  F          -0.41234233663185     -1.37999171371533     -3.02016225186868
  F          -1.16051848023310     -2.62563868222893     -1.42501132152987
  H          -2.27597648492295     -1.21725362762253     -2.30865171568669
  F           1.51761771671856      1.52687259189151      1.97342686614367
  F           2.99154158227601      0.23588278328102      1.03496611751460
  H           2.74236074295575      2.14790088427930      0.54697706011441
