24
Coordinates from ORCA-job NEB_reactant E -49.234314599890
  C           1.44647612735832      0.41622983241727      0.05390533917957
  C           1.19755412707752      1.10880806290824     -1.06253122883713
  O           1.47562464070646      0.93389983018877      1.31161411233281
  H           1.61960170601835     -0.65135403541044     -0.02335689329968
  C           1.09411979855977      0.38060866015014     -2.37912476385584
  C           3.45990061724238      3.34138373937056      1.19616984515427
  C           2.88126931298900      3.24811683900137      0.01168082977513
  C           1.40121867060296      3.32305777631994     -0.20689866198158
  O           0.97421145948607      2.44581934271114     -1.22829123349600
  C           4.93783551783859      3.24105592140020      1.41522971760325
  H           2.89115660789843      3.46719330058875      2.10550284413545
  H           3.47065481991703      3.10145357619978     -0.88415695917173
  H           1.13384424625141      4.31640777978914     -0.58381357428762
  H           0.86151364594543      3.13118309037903      0.72641633369807
  C           2.20591157815202      0.17885269467257      2.25578266579482
  H           1.98064425878997      0.60752784854318      3.23014536163476
  H           3.28159060067708      0.24813902838908      2.06941066832806
  H           1.90288191357209     -0.87249863030552      2.24067141612504
  F          -0.14659990303337      0.49063375129906     -2.91373323258951
  F           1.94260771008917      0.90969258781690     -3.29319127146402
  H           1.32290734527724     -0.69196116621903     -2.28838823215417
  F           5.21762353344625      2.19618814367138      2.24794797064520
  F           5.61822612528718      2.99811043980750      0.27299882317665
  H           5.36972553985069      4.14405158631097      1.87971012355419
