38
Coordinates from ORCA-job P E -45.467936093800
  C          -1.48063113463851      0.19950684476040     -2.19883136690396
  C          -0.52304436000064     -1.57058914660874     -0.33464513050596
  C          -1.98216415605710     -1.59746010817417     -0.64894572307116
  C          -2.44742902245198     -0.74668466529766     -1.55027662353303
  C          -0.68128454980144      0.88189698480994     -1.07004605732737
  C          -0.06707215494396     -0.11816496097730     -0.06535021246235
  H          -2.61701055664931     -2.29898322185546     -0.12968191600418
  H          -3.49341740680262     -0.71170051709087     -1.80714624097706
  C          -2.13252705555246      1.18517588221309     -3.19723097808863
  H          -0.28450908782568     -2.19252267336749      0.52875060346296
  H          -0.76717974072215     -0.40473614816942     -2.77677606447247
  H           0.03912965659025     -1.95974949931014     -1.18962139898915
  H          -1.35304026239922      1.54962873655102     -0.53034020467264
  H          -0.42010655398833      0.14434958415602      0.93703564993569
  H           0.11640526019879      1.48796599157238     -1.49806010528011
  C           1.43902306390504     -0.06523489096128     -0.05830495265683
  C          -3.20020227399027      2.05876552473287     -2.53437705674852
  C          -1.06557306101683      2.09596304206499     -3.81677774619798
  C          -2.77374391633001      0.37726326934290     -4.33287121141528
  H          -2.76031056183603      2.71291243204241     -1.78587639081981
  H          -3.96467107334324      1.45411566136103     -2.05411444227143
  H          -3.68279943244476      2.68362642544619     -3.28311892651654
  H          -0.67138422072823      2.79901139309134     -3.08792374548351
  H          -1.49777299697547      2.67081535123171     -4.63328249628456
  H          -0.24032284518835      1.50957617298512     -4.21582885786205
  H          -3.55367590225579     -0.28208358187321     -3.96275502353872
  H          -2.02579782352500     -0.23197194371849     -4.83647295873320
  H          -3.21809844586039      1.04634906738905     -5.06680255714673
  C           2.13551679898486      0.08864905428127      1.13297862131142
  C           3.51925578136256      0.11655115355220      1.14906417086003
  C           4.22960177866215     -0.01102612963157     -0.03126537946378
  C           3.54661494023961     -0.16723299848590     -1.22562823246544
  C           2.16443047151052     -0.19523669731026     -1.23755391822362
  H           1.58820538036804      0.18973118351391      2.05998559154796
  H           4.04346915313178      0.23889816249679      2.08591634394070
  H           5.30943979282913      0.01119915576332     -0.02176070483585
  H           4.09428936967121     -0.26831614272442     -2.15174907453181
  H           1.64437714787384     -0.31759774780160     -2.17655528357504
