38
Coordinates from ORCA-job TS E -45.368112705170
  C          -1.15302132570869     -0.15130383022958     -0.84840436932590
  C           0.29771228097074     -2.40379654612581      0.22819541783249
  C          -1.03616033205740     -2.42889341673715      0.00595875680878
  C          -1.74608417302735     -1.34954518611569     -0.56426934615233
  C          -0.60477917311484      0.36610965851576      1.22953426866965
  C           0.29902601035765     -0.52690911539226      1.72976189734369
  H          -1.62301176202805     -3.23801145118751      0.42193242030423
  H          -2.82435158088440     -1.42921688609337     -0.58263319496593
  C          -1.90554969904427      0.99196071336773     -1.50192825931669
  H           0.78043082485971     -3.19894369899398      0.77220725904361
  H          -0.09326463105208     -0.14741622583476     -1.05612149621177
  H           0.95787925245136     -1.76195323924946     -0.32439065008311
  H          -1.62296933696032      0.32489133265053      1.57418646599711
  H          -0.04533355447123     -1.27973785572385      2.42384402064488
  H          -0.27358752781888      1.31417309556494      0.84900674708359
  C           1.74456153732903     -0.37113484153323      1.64180782568079
  C          -3.14189058495386      1.41895003387041     -0.70654769150717
  C          -0.98979105053161      2.20484454781585     -1.69541424766413
  C          -2.34726289758326      0.50185680567044     -2.89222843216889
  H          -2.85705440959845      1.83849576437885      0.25476838336738
  H          -3.80676170643726      0.57749577809989     -0.53240175519677
  H          -3.69336524818532      2.17747622661249     -1.25842386105212
  H          -0.69876932838345      2.63905715114251     -0.74174019529310
  H          -1.50452822603354      2.97521565609266     -2.26598058068533
  H          -0.08959932293325      1.92517897204386     -2.23941033407061
  H          -3.03509937741192     -0.33480281958434     -2.80452311047141
  H          -1.48595277069341      0.17534331991034     -3.47097927149463
  H          -2.84416852536599      1.30341535440673     -3.43500839368751
  C           2.35756634376431      0.50419909902594      0.74244602504506
  C           3.73273216081715      0.62582139885030      0.69683695308838
  C           4.53162576926489     -0.11979476440942      1.54784789440545
  C           3.94012863555089     -0.99383729008064      2.44525860894835
  C           2.56601306581826     -1.12035171149633      2.48761114173998
  H           1.75516171247228      1.09215630010157      0.06617967302572
  H           4.18690302304555      1.30732669991572     -0.00871109232142
  H           5.60653090399658     -0.02169440785999      1.51051316566738
  H           4.55532355442194     -1.58066110909350      3.11243780785106
  H           2.11076146915849     -1.80596351229566      3.18878154912121
