25
Coordinates from ORCA-job NEB E -48.509063777870
  C          -0.16206095073940     -1.10753188385306     -0.05995136067147
  C          -0.79006328048705     -0.32876710870755     -1.04021160305802
  C          -0.94829829016847     -1.90998809868430      0.91010083840584
  H           0.71941763856604     -1.63756980353681     -0.40489922242196
  O          -0.05574373608293     -0.19394620926890     -2.18046441365594
  C           0.68256177444752      0.60615938731312      0.98495840953006
  C          -0.49217909519447      1.30612856279550      1.22960543030567
  C          -1.22437152156815      1.83425106367588      0.16280698841576
  O          -1.77433587279504      0.43093926466613     -0.80972318930254
  O           1.37265535218655      0.10967957423493      2.02112798098789
  H           1.26628563613848      0.83921027812963      0.09496946053381
  H          -0.96776193399827      1.15474199853610      2.18508576938152
  H          -0.68505290080517      2.30059130479458     -0.65116215843810
  H          -2.18273247931873      2.28194591620117      0.37574881034419
  Cl         -2.37133230524289     -1.12062386606566      1.57670780071863
  Cl         -1.54436866558971     -3.39971859539718      0.04420093300816
  Cl          0.05875126661544     -2.49658015738762      2.24878172383176
  C          -0.54261892257660      0.68585360885811     -3.18076329803013
  H          -0.50541911086150      0.15380285439969     -4.13109596749470
  H           0.09861885791721      1.56896262062358     -3.23235406426521
  H          -1.56821559283376      0.98659022903214     -2.96011700748527
  C           2.65379656566608     -0.41182467226671      1.74405145532274
  H           3.10819476905624     -0.62978881948747      2.70818523633937
  H           3.26880328859689      0.31303218892437      1.20181577143756
  H           2.58546950907171     -1.33554963752968      1.16259567626038
