25
Coordinates from ORCA-job NEB_product E -48.557052942530
  C           3.21179568633209      0.87238453903162      0.46154501876593
  C           2.70544182179976      1.68973765882805     -0.73762973218220
  C           2.16973870272072     -0.11846485318474      0.96989319622394
  H           4.07324937574690      0.28654494472720      0.11373725082789
  O           1.89203665758327      0.99605988821840     -1.51697244201434
  C           3.77090686623852      1.84694250180709      1.52943848666770
  C           2.69942409922886      2.45831993121839      2.39345929945499
  C           2.18703162777326      3.65301388583387      2.16852834330844
  O           3.04259418388978      2.82125791048462     -0.95600788214040
  O           4.73820123943682      1.13599565399715      2.27582949835995
  H           4.26897881486179      2.65344220355797      0.96481389650557
  H           2.38577686709204      1.85794882672883      3.23560553795852
  H           2.50393907100596      4.25203743242636      1.33084149013452
  H           1.41726621203433      4.06601565462632      2.79733171988483
  Cl          0.58194562658384      0.65582092228678      1.14986186856574
  Cl          1.99865942554378     -1.47575456392141     -0.17130450526048
  Cl          2.63052980254361     -0.82040441972635      2.52958393859032
  C           1.37738961056883      1.67504941604019     -2.65826825521613
  H           0.75931199539898      2.51813513960607     -2.34529585603815
  H           0.78339376020877      0.94312706944600     -3.19840660619244
  H           2.19575323550878      2.04526835225007     -3.27800860667846
  C           5.54381724669658      1.96720073525704      3.07409016634903
  H           6.25220313733258      1.31184256906946      3.57595941886848
  H           4.95184490417081      2.50831109593050      3.81973924119781
  H           6.08617002969933      2.69556750546050      2.45873551405891
