20
Coordinates from ORCA-job NEB E -52.505123672390
  C           0.47978535759016      0.83574805108561      0.26893798906142
  C          -0.82142407501105      0.37158853892243      0.55091854749835
  C           0.62123252731645      1.84644317476525     -0.84315942237690
  H           1.09244271040195      1.14048409577007      1.11468085738060
  C          -1.18973389705782      0.07336324442630      1.98468348367518
  C           1.36980314400388     -0.73567376565343     -0.53632110186233
  C           0.37712769955513     -1.71810563398479     -0.66059914469799
  C          -0.80474791100971     -1.36559224924649     -1.33899465405768
  O          -1.54171595156986     -0.16907267960265     -0.34706330721210
  Cl          2.73127064955825     -1.07243250674821      0.48669660459123
  H           1.67464616347983     -0.21425247713045     -1.43692719966010
  H           0.33697478581220     -2.49981599451883      0.08590067567748
  H          -1.60391958438052     -2.09449878247118     -1.37061007255862
  H          -0.71769133252370     -0.77220581772276     -2.24095313293539
  F           1.90363360747630      2.11415155670518     -1.11860459730574
  F           0.05015089264474      1.48936337794504     -1.99818839096089
  F           0.05949020414535      3.00997475100222     -0.48355875181236
  Br         -1.00175454316827      1.65978587735787      3.09528420506753
  Br         -3.00493814620069     -0.56945937599743      2.06368254874478
  Br         -0.01063230106262     -1.32979338490375      2.72419486374354
