20
Coordinates from ORCA-job NEB_reactant E -52.541314225550
  C           1.57524879659564     -0.09329502458511      0.11043746877917
  C           1.49695093696185     -1.33158193976295      0.61353895472029
  C           2.01976948649623      0.34795667669726     -1.24241793790811
  H           1.28061311576859      0.74424067001671      0.72325530123990
  C           1.04943707755741     -1.54681306708198      2.04170433887039
  C           3.98566994701903     -4.67546517055464     -1.30888202390387
  C           2.75014636140371     -4.21689075138079     -1.18934284045672
  C           2.43422634592562     -2.75488490008446     -1.13694290759213
  O           1.80302004789114     -2.52936841781287      0.12621512666490
  Cl          4.35244724178361     -6.34374612060857     -1.37740700428949
  H           4.84991610043246     -4.03300607843750     -1.39523207821393
  H           1.90778653653475     -4.88495388695920     -1.09392017860060
  H           1.74028386640713     -2.49276735531190     -1.94296215379289
  H           3.34806328059010     -2.16107974948170     -1.21631738447402
  F           3.32593503379973      0.11579591066572     -1.49140135447228
  F           1.34519180534410     -0.23238011475279     -2.25415184799389
  F           1.84416546533277      1.66364706584761     -1.38056427207328
  Br         -0.03107784445117     -0.13846189187849      2.79215687081383
  Br          0.04397594312608     -3.19725261215601      2.16731775476913
  Br          2.67793045548121     -1.73289324237833      3.12391616791360
