20
Coordinates from ORCA-job NEB E -36.459641888540
  C           0.43113160841817      1.01574519195516      0.52999230728047
  C          -0.90089138373772      1.43901998106728      0.34755327063663
  N           1.37889789207350      1.19228201562573     -0.52252329401716
  H           0.86425381548923      1.20406373059490      1.50539414265607
  O          -1.52445879565549      1.89502424606647      1.45674830535426
  C           0.16480984704839     -0.98682578789099      0.35990318016036
  C          -0.44363293041493     -1.04222536092083     -0.88741878799876
  C          -1.72097841544644     -0.46828470456216     -1.05588194189664
  O          -1.58069561386047      1.21214723964647     -0.69722816605473
  C           1.52946992981985     -1.57239739566060      0.57101957692298
  H          -0.47607078572362     -1.03668318252827      1.23499090593928
  H           0.17457617507296     -1.17079384631853     -1.76279600291003
  H          -2.47358033796282     -0.68414875593673     -0.30447181467791
  H          -2.11315121844309     -0.40923911626090     -2.06087960596130
  O           2.52303768857293      1.42138759605409     -0.17867306009250
  O           1.00567794748100      1.10518576508137     -1.67123747529292
  H          -2.44988437827562      2.09511356432448      1.25272023409192
  H           2.02674376983868     -1.12671593707808      1.42876700241031
  H           2.15703405768994     -1.44203341379437     -0.30694091778990
  H           1.42771112801556     -2.64062182946448      0.76096214123956
