20
Coordinates from ORCA-job NEB_reactant E -36.481834721240
  C           1.69081417237864     -0.15530609636638     -0.04928236836216
  C           1.46782846406188     -0.99731427575296      1.00219491889477
  N           1.84916583447882     -0.47498810904963     -1.40166370324068
  H           1.71991897019265      0.90899858065738      0.13333665920062
  O           1.09339323011836     -0.48973007753718      2.18908590639822
  C           2.66244873366116     -5.52501045377319      0.43531697503079
  C           2.81360464244623     -4.31966143968127      0.95865948071935
  C           2.46249601213158     -3.05325988460332      0.24425442741643
  O           1.60806487773443     -2.29633070964903      1.10946891742511
  C           3.02842719966138     -6.79622789550476      1.11906715801840
  H           2.26213822318739     -5.62922160247918     -0.56489322065234
  H           3.20403359608327     -4.19117224188262      1.95836795416716
  H           1.95289207726572     -3.25944827024596     -0.70264529329454
  H           3.36622358461965     -2.46471348190590      0.03401794638736
  O           2.33748607530442      0.38358893035483     -2.11569623966058
  O           1.45275890148886     -1.55687208736757     -1.81144701799616
  H           0.85817703607997      0.44472021559790      2.12484536373361
  H           3.41544993136382     -6.60924422823105      2.11702465227629
  H           3.78253685207046     -7.32829690985082      0.54010964941769
  H           2.15544158567128     -7.44340996272926      1.19227783412067
