20
Coordinates from ORCA-job NEB_product E -36.503800393350
  C           2.03693574814116     -2.34517159373507      1.11290652069230
  C           0.67135483455526     -2.26093816618526      1.88427074595849
  N           2.03327548035327     -1.21866533810843      0.16907540360055
  H           2.81678266036405     -2.14007057075994      1.85750076969274
  O           0.44894147576641     -1.09039966036469      2.44638882304950
  C           2.27178449580361     -3.69300184050482      0.42527312097299
  C           3.50960368336297     -3.62852705302320     -0.42834800321155
  C           3.55924440546447     -4.00284971287965     -1.69127424170239
  O          -0.06651561661769     -3.19210002495231      1.96234590853410
  C           2.44865564814244     -4.79380070939990      1.47616461822134
  H           1.40559378893404     -3.92816202353782     -0.19860928911128
  H           4.40200878756594     -3.28536242408639      0.08067999186696
  H           2.68232969822174     -4.34604734424576     -2.21310181877140
  H           4.47353579674726     -3.97145031271014     -2.25758800442559
  O           2.11339391125590     -0.11405279932325      0.69151487015515
  O           1.90187794559608     -1.42094982577239     -1.00439532719640
  H           1.07318693670553     -0.38779716572205      2.14663408365055
  H           1.55368009757583     -4.89323167485229      2.08199798675056
  H           3.29604306449509     -4.57474768105305      2.12296163044707
  H           2.63588715756663     -5.73977407878358      0.97610221082631
