21
Coordinates from ORCA-job NEB E -40.873123254070
  C           0.09740386446369     -0.71362771959508      0.32705309513169
  C          -1.34818672176346     -0.71087777999925      0.16368843418849
  I           0.62843049954665     -0.32189340059966      2.45099551138817
  H           0.52807809341462     -1.68941093467234      0.11534781358113
  C          -2.08923333827101     -2.00914158829915      0.05238406067614
  C           0.66283239745996      0.41833119392390     -0.54801493565024
  C          -0.49367505546845      1.32909663231424     -0.75790308673157
  C          -1.47905548407778      1.51410560836638      0.33806096699394
  O          -2.12062516664600      0.30410164438852      0.61912385591179
  O           1.75593239950638      1.14336519005591     -0.03297191523667
  H           0.95539968024000     -0.03853588029374     -1.50776050958860
  H          -0.27393614374990      2.21315438058426     -1.34108308800493
  H          -2.26043738702989      2.23878012300507      0.10205561308337
  H          -0.93395791365185      1.87081754019133      1.23290221238099
  F          -2.07452208535141     -2.45788750474812     -1.23569463521484
  F          -1.50760049615863     -3.00068774773273      0.77475683424770
  H          -3.13826880001024     -1.91035763436744      0.36601074131659
  C           3.01937354782103      0.55775719968983     -0.24420414263803
  H           3.21460382616166      0.41623902824030     -1.31319834562105
  H           3.11076616351232     -0.40572022911294      0.26790281191321
  H           3.74667812005232      1.25239187866068      0.17054870787272
