18
Coordinates from ORCA-job NEB E -33.511294904420
  C           0.82225422199561     -1.04916078696963     -0.09910178064559
  C          -0.56259579208687     -0.90300347946575     -0.32847321013672
  O           1.25939632774332     -1.55698352948905      1.07371087005617
  H           1.47217076033254     -1.33246826724731     -0.91924466806981
  C          -1.08416575487356     -0.67264395259265     -1.72892121903597
  C           1.15707342046507      0.89132741676107      0.09451763495817
  C           0.36273941837641      1.21266032777449      1.19490190835810
  C          -1.03056518686521      1.14620538148064      1.05737411797254
  O          -1.29560850640628     -0.55200450162402      0.66909259508370
  I           3.26423672946019      1.00206376038052      0.32503798352184
  H           0.86814403274336      1.21663021328935     -0.89514730240263
  H           0.78952459330678      1.11595013665249      2.18334729870067
  H          -1.48249936240252      1.55156214331910      0.16058367302446
  H          -1.63639169871862      1.26159967557585      1.94380647970482
  H           0.55819808335133     -1.45032242311667      1.73653975220085
  F          -0.10981773530760     -0.86923385673101     -2.66935606933541
  H          -1.45082901111242      0.35663582199539     -1.85075251176833
  H          -1.90126454000152     -1.36881407999283     -1.94791555218684
