18
Coordinates from ORCA-job NEB_reactant E -33.537927000960
  C           1.62397225607817      0.26166517001174     -0.03645926125632
  C           1.40544503050472      1.20756866788151     -0.94816995748888
  O           1.98750029014776      0.47786097062375      1.27532114455797
  H           1.50950642757316     -0.76735678376119     -0.34209810933087
  C           0.99387932478904      0.84914261887371     -2.35551777554590
  C           4.42690867165727      4.01080784097867      0.23450477381003
  C           3.59293342495931      2.99185400272018      0.21936603747588
  C           2.10185071946337      3.15402142092952      0.27730688644011
  O           1.46087263609652      2.57462322925814     -0.84443158077548
  I           6.51788569376556      3.78513276300669      0.17537525978956
  H           4.11412983724417      5.03920189576047      0.29681863094508
  H           3.94557277453210      1.97323770182682      0.15318746400608
  H           1.82479957287805      4.21075520658792      0.24071885569888
  H           1.72864431527116      2.71037279841397      1.20669153865262
  H           2.16100383467538     -0.36773390748159      1.69828611007284
  F           0.71949316820479     -0.48370947594407     -2.49042455646294
  H           1.79529837377946      1.08794683695574     -3.06501810931940
  H           0.08950364838000      1.40230904335803     -2.63105735126927
