18
Coordinates from ORCA-job NEB_product E -33.546556818550
  C           3.16432927921128      1.47983527696355     -1.20068482464899
  C           1.76914064986471      1.84502950928453     -1.72490644997259
  O           3.16705784502878      0.16540636809681     -0.72651790109588
  H           3.86081023247741      1.59575318439244     -2.04898643194448
  C           0.75503271703134      0.74144293156352     -1.54675557729632
  C           3.50956268710348      2.52262589981937     -0.12835909339430
  C           2.59398096733450      2.44902728415743      1.03716030798280
  C           1.95486842589910      3.49654294887142      1.52601181521502
  O           1.53913558973327      2.91425776244755     -2.21471288078364
  I           5.56933145137628      2.17850771224415      0.54926130345691
  H           3.51488985825437      3.51624967121556     -0.57423246635476
  H           2.47287793412610      1.46397397953380      1.46919784595872
  H           2.07314586113766      4.48096231194105      1.10413322838716
  H           1.28412042299628      3.40848162060868      2.36249732901219
  H           4.04932839205040     -0.03768810900877     -0.38123950647228
  F          -0.47905437456360      1.11629346638379     -1.98518408481115
  H           0.67658360560171      0.47723298616021     -0.48659620143276
  H           1.06845845533691     -0.14253480467508     -2.11328641180565
