25
Coordinates from ORCA-job P E -34.510830106260
  C          -1.43837233500739      0.34452030933747     -2.45375097721989
  C          -0.49438798271770     -1.93382278531778     -1.13788546637544
  C          -1.85178286151557     -1.94739696438531     -1.76823976611016
  C          -2.28633122903983     -0.89059305974474     -2.43310070335757
  C          -0.96435339002408      0.59494787289915     -1.01203548310616
  C          -0.13749805730879     -0.58063376110097     -0.47407858730841
  H          -2.42887669193326     -2.85616477965406     -1.69442960737085
  H          -3.24711776585636     -0.84812572496042     -2.92033223811475
  C          -2.17378071679454      1.54954065915897     -3.01846888373837
  H          -0.39992567433231     -2.74395750715015     -0.41369039142566
  H          -0.54760135724627      0.18103460442634     -3.07375473995594
  H           0.24771770890827     -2.10204996975293     -1.92664599764160
  H          -1.84209541806019      0.74408842081347     -0.38200811384046
  H          -0.30752598144714     -0.66095143708630      0.61255233072104
  H          -0.33207101255781      1.48021596399088     -0.95692510308769
  O           1.22434120244178     -0.24317823391833     -0.68941327224602
  O          -3.32049257665809      1.50331575490515     -3.38388405707392
  C          -1.36008448609190      2.81859552680458     -3.08655949924453
  H          -0.30773893635107      2.61291535635366     -3.25693115952675
  H          -1.46360706209113      3.34545461649593     -2.13892235600751
  H          -1.75135219496409      3.46276868784186     -3.87027878045682
  C           2.14324720394899     -1.03648860693368      0.01429939134157
  H           3.12422672553379     -0.59891846701287     -0.16239573815294
  H           2.14563851255498     -2.07544232115737     -0.33404736994080
  H           1.92976437660972     -1.02712415485257      1.09085656923963
