25
Coordinates from ORCA-job TS E -34.413195454790
  C          -0.82417317824802      0.38940520105990     -1.10127353404721
  C           0.40194157363075     -2.01536584211487     -0.16359574488462
  C          -0.89876413029004     -1.97687543611924     -0.56088276214933
  C          -1.50204353671600     -0.80980150728194     -1.04637058688107
  C          -0.41896430026235      0.68033207080993      1.01079896850910
  C           0.41966995525328     -0.29308098392878      1.47346496058399
  H          -1.54151333124918     -2.81848750623180     -0.33896567278990
  H          -2.57532740623995     -0.78594358848484     -1.17201886118815
  C          -1.56373448770444      1.61279811927234     -1.46939000808459
  H           0.78423144502810     -2.90514463896730      0.31205817069644
  H           0.23915930695848      0.40769982843139     -1.28355683235624
  H           1.14068979262219     -1.34959877766746     -0.57046422852420
  H          -1.46082554031564      0.64168415638670      1.26527438795838
  H           0.07057964444460     -1.11906472598852      2.07630844865578
  H          -0.00178616761949      1.64655665674072      0.79138855804066
  O           1.76714140824211     -0.05803021168700      1.46860620382280
  O          -2.76345986120913      1.71998073375722     -1.33990226133319
  C          -0.70654701627304      2.72776054150330     -2.02319341779125
  H           0.09383738508932      2.96920846541679     -1.32748694714619
  H          -1.31140189494821      3.61143340335454     -2.20749184992068
  H          -0.25380175729693      2.39950308602973     -2.95731933434694
  C           2.55938959671266     -0.99264842471808      2.15768531911076
  H           3.58423297441317     -0.63077577649431      2.09708559397310
  H           2.49777717027119     -1.98479137291590      1.69963962065652
  H           2.26369235570657     -1.06675347016250      3.20960180943603
