14
Coordinates from ORCA-job NEB E -30.600563155870
  C           1.24727971935664      0.52452808942562     -0.54671466333946
  C           0.64772912592127      1.27762553299831      0.47221714727328
  F           0.90651158508323      0.83847961862348     -1.80877921026356
  H           2.30262744671117      0.27113900815308     -0.48688905685930
  Br          1.53838383730964      1.06086535385574      2.20101356798135
  C           0.27856305773593     -1.14542528470010     -0.31479803581104
  C          -1.04507937574097     -0.70766288166861     -0.40591857816563
  C          -1.52995000349781      0.16239924041168      0.60122515504268
  O          -0.58725996551484      1.53359575159947      0.49019480850740
  Cl          0.90361334876045     -2.17236048394709     -1.57147107564837
  H           0.68813512433132     -1.41620090127333      0.65453535140559
  H          -1.51299523343676     -0.69271502557982     -1.37897834144710
  H          -1.31480874257671     -0.10305273322838      1.63317802187471
  H          -2.52274992444253      0.56878471532994      0.46118490944945
