14
Coordinates from ORCA-job NEB_product E -30.640557952780
  C           1.51770289469918     -1.94992744588635     -0.20545275186046
  C           1.21212536484909     -0.67932356712854      0.54772272907896
  F           1.04594523386477     -1.81128952056739     -1.47941336354052
  H           2.60335530057089     -2.10360414706755     -0.27242346504317
  Br          2.14217215546548     -0.66315300013458      2.26837452136247
  C           0.84181528053467     -3.14645822808003      0.49047458676902
  C          -0.64361968642283     -2.99975223197448      0.51669844913906
  C          -1.35145830222086     -3.04198724705101      1.63016908699225
  O           0.52027156826305      0.22029805599035      0.24361518122682
  Cl          1.28392721384368     -4.63834380764502     -0.41653613433991
  H           1.25502356147717     -3.26499866442374      1.49493909658934
  H          -1.10829854660463     -2.85763527656893     -0.44846545187679
  H          -0.89108330225555     -3.18802770641350      2.59386538811518
  H          -2.42117873606409     -2.93109721304924      1.61943212738774
