24
Coordinates from ORCA-job NEB_product E -32.375734062600
  C           2.59820562350358     -1.20039666594029      0.73492440103928
  C           1.50367579927610     -0.53431158149401      1.55987125698077
  C           2.38713185123630     -0.83128459281421     -0.73800391622133
  H           3.56543795775361     -0.79861635976662      1.06544551557306
  O           1.77168146641678     -0.43605624846252      2.87945976382783
  C           2.56354011643488     -2.72126053370313      1.07221544677236
  C           1.57826525786457     -3.44949938861379      0.20393382637236
  C           0.33860968991025     -3.71809448926941      0.56630522984631
  O           0.46728917130089     -0.13122730077419      1.12226192322749
  C           3.94919512697015     -3.36305610433017      0.98495634231166
  H           2.22266692558767     -2.82133980627783      2.11164827499076
  H           1.94365387589819     -3.75753123430896     -0.76597722373364
  H          -0.05147414891052     -3.41915342116873      1.52546453990382
  H          -0.34511097472009     -4.23668694554839     -0.08349519208231
  C           3.53730154167786     -1.21277220997333     -1.66053084668406
  H           2.24989229867578      0.25198194555692     -0.77952278866127
  H           1.45789603919198     -1.28289723545581     -1.08568058398442
  H           4.48670022261771     -0.85804564144742     -1.26374307635479
  H           3.38770562032913     -0.75894706666270     -2.63737304384233
  H           3.59811248134523     -2.28817711912635     -1.80123100114186
  H           2.64283659570463     -0.78725946139934      3.10690651916766
  H           4.64888350357978     -2.87044879550722      1.65808153195379
  H           4.34901610911928     -3.30891987342992     -0.02239888123953
  H           3.88338784923625     -4.41079987008259      1.27098198197838
