24
Coordinates from ORCA-job NEB_reactant E -32.355295569990
  C           3.16135899209969     -0.28963603482130     -0.79901152289809
  C           3.51013330861725     -1.54659407053930     -0.52907780266195
  C           1.84160158017144      0.10551652543126     -1.38637662965428
  H           3.85608629216297      0.50634623017901     -0.57325347259346
  O           4.71540402277297     -1.88941205010088      0.02720520915102
  C           1.87040729289420     -4.79380779623581      1.70888362857901
  C           2.74765119966185     -3.96315412551222      1.17218009528438
  C           3.02663363084525     -3.86677223649045     -0.29759564897140
  O           2.70000914454858     -2.58644183963446     -0.82743251103388
  C           1.58644121951339     -4.90097075528415      3.16903802588205
  H           1.30830367260839     -5.46771166870677      1.07433982048814
  H           3.31221160845084     -3.28026277492880      1.79232578501142
  H           2.39573038772889     -4.56068046479437     -0.85801231269702
  H           4.08221096415388     -4.09155042232327     -0.49550743745037
  C           1.05740719478299      1.01194585186830     -0.43761595442982
  H           1.26747281617750     -0.79618353735089     -1.59665068680942
  H           2.00510955752703      0.63590967585820     -2.32947570634839
  H           0.85857999605697      0.49522937993952      0.49838932417363
  H           0.10791579352727      1.29933746402661     -0.88334881009618
  H           1.62304511611641      1.91543598245867     -0.21850200318213
  H           5.23861205720913     -1.09189809366243      0.15468370729213
  H           2.18533198147402     -4.19388872797401      3.73715790337325
  H           1.80259556072790     -5.90945710069667      3.52100510138722
  H           0.53184661017122     -4.70499941070579      3.36075189820414
