26
Coordinates from ORCA-job NEB E -34.700674780180
  C           0.16306236240175      0.32770962234947      0.65424347613591
  C          -1.21266105637767      0.30176493116524      0.79754721280237
  I           1.07100215040135      2.75516661508298      0.67675160870916
  H           0.73349598937753      0.10641517534407      1.54435521848218
  C          -1.86589731332846      0.06383451712544      2.12881762397071
  C           0.66987019773012     -0.33657352148892     -0.66336178822577
  C          -0.12040065068369      0.33824584969064     -1.70767211829956
  C          -1.57533766089648      0.30286599021633     -1.56864781285361
  O          -2.07057342960346      0.39135874793836     -0.21584428658424
  C           2.20391035389796     -0.31618644322507     -0.80796234135031
  H           0.36128810750485     -1.38858976510326     -0.57605413065915
  H           0.31086274223068      1.15444373395837     -2.25733608751052
  H          -1.99626403876327     -0.64600807673238     -1.93048253350140
  H          -2.05779094162052      1.11672126814034     -2.11581668071415
  C          -1.76302544485063     -1.40357057624208      2.55329482804521
  H          -2.91516097934597      0.34960947890578      2.05121328023009
  H          -1.38443128441579      0.69558247034889      2.87676096856009
  H          -2.24978657499171     -2.04480057446051      1.82231792615174
  H          -2.24887331604268     -1.54631011453955      3.51479643381086
  H          -0.72273193331798     -1.70695906351753      2.64261146592399
  C           2.75747449215841      0.54389747511363     -1.93720457469701
  H           2.54078829908428     -1.34291521793726     -0.96747718207710
  H           2.64311764231851      0.02167727527833      0.13174417825015
  H           2.37924190173051      0.21186185891933     -2.90128786757717
  H           3.84182167602899      0.45971548042476     -1.94755071221153
  H           2.50699870937339      1.59104286324460     -1.79775610481096
