26
Coordinates from ORCA-job NEB_reactant E -34.750745288670
  C           2.28324379329563     -0.59284533054537      0.16598429555775
  C           1.53051610610951     -1.64016029063551     -0.15756376090190
  I           3.34132614094753      0.81438674848524     -1.00192228487840
  H           2.40923122051934     -0.36309195438604      1.20868292217516
  C           0.91998600966667     -2.45137917527309      0.96884896296352
  C           3.85723330381866     -2.79644982991060     -2.12081797275501
  C           3.10783291164593     -1.96632025591712     -2.82578517938775
  C           1.64914116372337     -1.71128151962770     -2.57425097969298
  O           1.16596937821093     -2.19026891370799     -1.33528580682233
  C           5.31523125426596     -3.06741343680358     -2.31997615785213
  H           3.41350284109575     -3.34553140570391     -1.29929124384606
  H           3.50753086224453     -1.40506578026882     -3.65622924399587
  H           1.05032148851904     -2.25394740819215     -3.31680158489125
  H           1.42582552560921     -0.64374338405682     -2.68855298327022
  C           1.75366073350201     -3.69948542465724      1.25438473715990
  H          -0.08173708740247     -2.75089724397755      0.65710447744102
  H           0.84030732396068     -1.84360486485822      1.86955703439147
  H           1.80350116599547     -4.32877434513716      0.36923046110305
  H           1.30354416151941     -4.27392502901184      2.06029355516009
  H           2.76454053207746     -3.42376871436096      1.54740144840120
  C           5.97371998590159     -2.25966460259155     -3.42969059382371
  H           5.43869416378254     -4.13693297559842     -2.52093986220348
  H           5.82747637448157     -2.86502348034665     -1.37353358422201
  H           5.51694452302112     -2.48100432206361     -4.39134402299936
  H           7.03159861303561     -2.50501276175819     -3.48929353344993
  H           5.87945751045295     -1.19439429909518     -3.23320909936078
