18
Coordinates from ORCA-job NEB_reactant E -42.800214114160
  C           2.04229540396369      0.26524658027957      0.33996764259881
  C           1.46674929749337      0.65242748761781      1.48042171241435
  F           1.31341848944578     -0.23436676610772     -0.65683664986546
  H           3.09113695846712      0.33270495529159      0.10297596714382
  C           2.28946670774899      1.16959608663944      2.63580062186178
  C           0.01849848488277     -2.38864517712776      3.54236703605729
  C          -0.20060722736903     -1.57279112581394      2.51372106934941
  C          -0.47435427472063     -0.11007324080134      2.65674276768122
  O           0.11425200498761      0.64676814785890      1.60126940230650
  C           0.26026342950398     -3.76648635901813      3.37573856720939
  H           0.01788827942379     -2.03528820710296      4.56567661699013
  H          -0.18993138454411     -1.94499190575822      1.49766466901510
  H          -0.16328187179586      0.25922244440996      3.64011914196929
  H          -1.54672852572752      0.07863760637067      2.53372377088873
  Cl          2.63308831408100     -0.16403242028148      3.78859703276825
  Cl          3.84772929334412      1.82608712111431      2.10686065243451
  Cl          1.41050221324570      2.45798750806571      3.48925035690962
  N           0.46201440756925     -4.88830273563640      3.25493962226726
