23
Coordinates from ORCA-job NEB E -39.991754051840
  C           0.51151796884687      0.08888411978377      1.02177792211544
  C          -0.74018249597404     -0.34649268927450      0.52236286217777
  C           0.56418063319170      1.15518486438815      2.09955536975736
  H           1.16802483664563     -0.72054193452937      1.33633599433543
  C          -0.97522477757201     -1.81347796154218      0.25457327212488
  C           1.30846733035851      0.97308620861267     -0.45061872501074
  C           0.34595135216532      1.15426731353976     -1.45526583886433
  C          -0.91468943137083      1.64429221068249     -0.99256704848007
  O          -1.53418169419611      0.49163972880738     -0.06541587980362
  I           3.06983860485680     -0.10898623360911     -1.00447455347869
  H           1.61711872198494      1.85573366518088      0.09293683005203
  H           0.32383540373960      0.45247205444264     -2.27851964481335
  H          -1.68932609442900      1.74749270544749     -1.74501882204988
  H          -0.88010325211157      2.50359554386210     -0.32882570769722
  F           1.84951463936853      1.48443959188181      2.38292916752041
  F          -0.05084168840824      2.31624025619621      1.78543202138739
  H           0.11069823844581      0.78857493591234      3.03605991237482
  C          -0.47692256412634     -2.23475382072007     -1.13064202169116
  H          -2.05074292582892     -1.99109457307198      0.30919677781221
  H          -0.48191563665001     -2.40780853310530      1.02388733439315
  H          -0.97442541656966     -1.65298804563718     -1.90257613146389
  H          -0.69817536556816     -3.28570432213917     -1.29544080211580
  H           0.59758361320119     -2.09405508510884     -1.21568228858216
