15
Coordinates from ORCA-job NEB_reactant E -27.528348933310
  C           0.91221875116060     -0.25991139344660      0.04681871831172
  C           1.76469539004710     -0.68773447814793      0.96024947588436
  H           1.26164195371410      0.37449271895042     -0.74374537097858
  H          -0.12405259401094     -0.53091558260755      0.05173107583494
  F           3.05840879166221     -0.33905777701978      0.90512408248983
  C          -1.56173967084479     -3.04435069520486      1.10143857386074
  C          -0.26421001703159     -2.87715985330121      1.34976354226600
  C           0.27419926309094     -1.88883692170544      2.33732317634607
  O           1.58850918417263     -1.46889426760637      2.04221069446906
  C          -2.03834268005867     -4.00956858984062      0.19254266537756
  H          -2.32196621151770     -2.44773969034336      1.59023361055541
  H           0.47664691435999     -3.48613899385515      0.84937100333370
  H           0.36217501914102     -2.37203003719532      3.31816483697065
  H          -0.39400250617741     -1.02220119545422      2.43412710530665
  N          -2.43918158770750     -4.78545324322203     -0.54975319002811
