15
Coordinates from ORCA-job NEB_product E -27.551979912270
  C           0.98060308207731     -1.66310985802695      0.43481508017922
  C           2.30280800382741     -2.33806076257650      0.60366374757597
  H           0.73289623587408     -1.63490382302710     -0.63015229225845
  H           1.09185719220799     -0.62728400412788      0.77259658598381
  F           3.21245078721520     -1.80955174181967     -0.26446817594152
  C          -0.12016830180375     -2.36466665398670      1.24791074212055
  C          -1.36802054539681     -1.52175588365040      1.32074664129442
  C          -1.95809783516455     -1.18636879995263      2.45110839412599
  O           2.63422402911161     -3.18534621371880      1.35135174354208
  C          -0.45870049321539     -3.62605383544746      0.61814647546163
  H           0.25046073339212     -2.58071893655170      2.25678402105572
  H          -1.76854823217815     -1.21111422829276      0.36527967431397
  H          -1.57528416922805     -1.49721126269493      3.40952686662554
  H          -2.85128383602630     -0.58647487531631      2.46532463660706
  N          -0.75359665069271     -4.60017912081023      0.10046585931401
