19
Coordinates from ORCA-job NEB_reactant E -36.736658605370
  C           2.17221563205835      0.29621891993592     -0.38733887363749
  C           1.52974295934726      1.12260460731574     -1.21888843670450
  O           2.57542297520810      0.63107626917969      0.90174933373683
  H           2.39735486075082     -0.70456026704261     -0.72206717984450
  N           1.19860237472473      0.74505397983935     -2.52173591887845
  C           3.93469347322712      2.98417720363814     -0.87624982102859
  C           3.12762003870065      3.23812147225437      0.15013949258629
  C           1.64579801599206      3.09416592115528      0.12445928291214
  O           1.13622150129065      2.41971251119188     -0.99903735444154
  N           5.35015633608788      3.11525147671600     -0.75013187404899
  H           3.61340448382084      2.66098807164681     -1.85416580739493
  H           3.55738187389041      3.55953335997617      1.08981885547631
  H           1.18526782027712      4.08888482367761      0.08863756726998
  H           1.32638456613180      2.60175751577769      1.05140877373733
  H           3.29491366365887      0.04769081359604      1.15952122103880
  H           0.45521633732227      1.31786733244657     -2.89598063616424
  H           1.02418902958180     -0.24090122431957     -2.64047177794986
  O           5.81066575164136      3.45549758055569      0.32073608120497
  O           6.01044830628790      2.87085963245921     -1.73930292786956
