17
Coordinates from ORCA-job NEB E -41.646603966450
  C           0.79826519534835      0.72136988360553      0.71529030438412
  C          -0.53363417512866      0.28498493205046      0.89343287701472
  Br          0.95761003641512      2.63310823830134      0.50161577404661
  H           1.53240632124486      0.38926030960460      1.44034245252231
  C          -0.80545230765557     -0.94354697681750      1.73051985615943
  C           1.31571029347943      0.04230705515742     -0.92507674642419
  C           0.14848849692201     -0.30141683281537     -1.64294866252144
  C          -0.93181650114940      0.63685569794749     -1.53124844382626
  O          -1.40763403563802      0.53556674713235     -0.03550299972888
  Cl          2.44903584207654     -1.25877095063663     -0.61998742016020
  H           1.86214539725561      0.91806993843853     -1.26399707006243
  H          -0.11527495858791     -1.34807232856326     -1.70473700015329
  H          -1.84013397248734      0.38135009860266     -2.06635540681832
  H          -0.66611504960564      1.68454142173812     -1.66588448637148
  Cl         -0.33311261633019     -2.43775276750290      0.83945257676015
  Cl          0.10562559769083     -0.89471091770634      3.24598041228569
  Cl         -2.53611356385003     -1.04314354853648      2.08910398289344
