17
Coordinates from ORCA-job NEB_product E -41.692797875140
  C           2.57208199371923     -1.54160287135684     -1.28374744126427
  C           1.31325681928357     -2.30379667885110     -0.94183706446357
  Br          2.09262177365542      0.32975120350523     -0.97701092288928
  H           3.37469259667086     -1.76841965333781     -0.58051966975200
  C           1.33257604702735     -2.94413802034915      0.45792538773475
  C           3.05253877313803     -1.71090741725832     -2.72247229435865
  C           2.08418814694526     -1.27793076178259     -3.77112362200753
  C           2.36823285330120     -0.33887030678330     -4.65507468015242
  O           0.36836777068866     -2.43184128795028     -1.65799147217621
  Cl          3.40587447460994     -3.47227631756902     -2.91565701993541
  H           4.00641551413821     -1.18830862239829     -2.84252386306061
  H           1.13021848992576     -1.78272583866511     -3.76999303809812
  H           1.65394660605449     -0.03807860341744     -5.40058933768703
  H           3.31734836429976      0.17202852736994     -4.66400346276046
  Cl          2.48782552846235     -4.30189287404128      0.32249851466022
  Cl          1.88994144754094     -1.81555637805012      1.70585036635534
  Cl         -0.26552719946102     -3.55923409906455      0.87866961985522
