17
Coordinates from ORCA-job NEB_reactant E -41.683931817630
  C           1.82201617922413     -0.23072843642160     -0.09825782726730
  C           1.67723211263896     -1.48106792763117     -0.53641643679903
  Br          2.14096495438485      1.33361729923740     -1.10583937605695
  H           1.73907190612819     -0.01127556539133      0.95131516087309
  C           1.40808340471915     -2.60629345658363      0.44627667658845
  C           3.57207333274943     -2.51790027165791     -4.61069723222333
  C           2.42546298835356     -2.31982657445433     -3.98273242751480
  C           2.26295182485363     -1.31993656494874     -2.88063724229465
  O           1.74434745311195     -2.03283736993080     -1.76023448419308
  Cl          3.74894483209137     -3.64972067581677     -5.88355583502656
  H           4.47529664091026     -1.96973890706203     -4.38740006128478
  H           1.54431526574460     -2.89348534055364     -4.22585307944242
  H           1.55258619410937     -0.54325002773949     -3.19017995142996
  H           3.22464516822505     -0.86066560362489     -2.63256875057324
  Cl          2.85754843319776     -3.65044322258131      0.49094091123023
  Cl          1.05357787270408     -2.07687882879486      2.08911103725110
  Cl          0.03278143685364     -3.56926852604489     -0.13737108183678
