20
Coordinates from ORCA-job NEB E -41.976233781520
  C          -0.12985645532144      1.05131083887269     -0.81341447805192
  C          -1.32973556134159      0.96170423697108     -0.03507918766368
  N          -0.18462627094090      0.77294666662703     -2.15020670107161
  H           0.56596192818701      1.84097263401738     -0.55418659612187
  C          -1.37424399378457      1.77523491107556      1.14282100149962
  C           0.75695292528784     -0.60885899863085      0.02430660685716
  C          -0.17834180100918     -1.26035090799499      0.84628868430918
  C          -1.37545429454351     -1.68251266110765      0.30497839251199
  O          -2.13251823387985     -0.00299618481780     -0.18173831242800
  C           2.03694570362532     -0.11854200925432      0.62578011664268
  H           0.91229858920400     -1.05432544329099     -0.95342393138241
  H          -0.13662445860557     -1.06227901211755      1.90974078200116
  H          -2.14977492311477     -2.06203491786798      0.95019209164586
  H          -1.41167108280803     -2.03564434870450     -0.71390549006635
  H          -0.87747645273758      0.09197435815909     -2.42572939708427
  H           0.68718830837502      0.73520819182229     -2.65417726450145
  N          -1.46682964774698      2.46419004679713      2.05553567294124
  Cl          2.98580678782902     -1.51054949043740      1.25145525107632
  Cl          3.04635325126757      0.68946323858247     -0.59911615078226
  Cl          1.75564568205818      1.01508885129931      1.96987890966864
