20
Coordinates from ORCA-job NEB_product E -42.010973055470
  C           3.00065721268393     -0.98981102232193      1.06517358487697
  C           2.36448876933319      0.20419081256903      1.80257303723428
  N           2.07611195915777     -1.53275186244627      0.09264577572505
  H           3.90175881550420     -0.66018153016263      0.53620713882578
  C           3.15289047178494      1.41693759253671      1.68317478825249
  C           3.38540384381321     -2.12960940973067      2.04530472346895
  C           2.20377825307082     -2.58377965513376      2.85778397016211
  C           1.54122259346662     -3.69558512258217      2.59975089103535
  O           1.26837193392274      0.16531268814346      2.30135897725370
  C           4.53641453048147     -1.72065289081604      2.95705159580320
  H           3.72926370090595     -2.96056896944448      1.41994995547849
  H           1.90045786528504     -1.93093533708921      3.66293730826758
  H           0.68616304127146     -3.98823058941604      3.18341076054570
  H           1.82607377508280     -4.35434117555582      1.79595438893473
  H           1.21589475405413     -1.82105826530537      0.54901241011763
  H           1.85171960636365     -0.85139410210361     -0.62308578687366
  N           3.80245375528884      2.34713231079793      1.52841721108815
  Cl          4.91960997843953     -3.05264223815272      4.06943372044260
  Cl          6.00194170204696     -1.33850626053797      2.02116162224306
  Cl          4.11072343804274     -0.28352497324845      3.92678392711784
