18
Coordinates from ORCA-job NEB E -42.139039702610
  C           0.25038653803866     -0.17697034572445      1.36707940760476
  C          -0.98590790006373     -0.84199173364090      1.39919931749111
  C           0.20847693712433      1.21408304694903      1.66767040463125
  H           1.11664235065942     -0.68858972768122      1.77364328432261
  Br         -0.88994334694669     -2.78443162318962      1.61913786694391
  C           0.51146326659290     -0.20870661683200     -0.59640691697790
  C          -0.66602447422016      0.39468430003894     -1.04596056207501
  C          -1.89084002604812     -0.27330497775175     -0.81357709457435
  O          -2.02540529968694     -0.38555929893468      0.85775537191472
  C           1.84297038485003      0.41725700341128     -0.91500257242657
  H           0.57811484881352     -1.29269399331414     -0.66621662534417
  H          -0.67685257059138      1.46400219902451     -1.19379568798158
  H          -1.93267974377274     -1.33496175279414     -1.04124062932548
  H          -2.79970440028789      0.25663095220837     -1.06435915864388
  N           0.13604706638127      2.32090675237181      1.94537140641454
  Cl          2.22778662554863     -0.03626918590747     -2.60915704684654
  Cl          1.85161855703670      2.18465821196771     -0.79910035815990
  Cl          3.14385118657219     -0.22874321020127      0.11495959303252
