18
Coordinates from ORCA-job NEB_reactant E -42.168976375930
  C           1.54814160834199      0.17884898236974     -0.08729917895480
  C           1.55190975452091     -1.05961658783397     -0.60278551106637
  C           1.51479704753253      1.37923790261246     -0.81117570540096
  H           1.57121299629056      0.29648116802061      0.98626022622948
  Br          1.59769648261454     -2.55113799048153      0.57346517870068
  C           3.55562829615537     -0.28951301881482     -4.38539618645494
  C           2.93646836767351     -0.13960153955742     -3.22565353630576
  C           1.54952914407083     -0.64253672938725     -2.96665342931469
  O           1.50848914524543     -1.52154782294689     -1.84777369380344
  C           4.92183672965949      0.20246926174595     -4.70241879648669
  H           3.07750942398685     -0.78720152670212     -5.21796552269357
  H           3.42138128593374      0.36069407742392     -2.39981876156064
  H           1.19156981829107     -1.24846584686953     -3.80190413240526
  H           0.86774175854818      0.20170592246339     -2.80995318545382
  N           1.49542113625860      2.38922123238032     -1.35746558728361
  Cl          4.81324672816137      1.39456891570556     -6.03273724705322
  Cl          5.74359912892264      0.96558260069649     -3.33623912818440
  Cl          5.91772114779239     -1.17218900082492     -5.26298580250798
