18
Coordinates from ORCA-job NEB_product E -42.182471933740
  C           3.01447021174622     -0.41891270668263     -1.43823809260755
  C           1.94863668698167     -1.39304433940172     -0.99611258556461
  C           2.75739311515216      0.84699046489035     -0.77594077819135
  H           3.98760899631768     -0.79002927119837     -1.08807617520115
  Br          2.04139155206452     -1.73443490280333      0.92389098028016
  C           3.01607664647605     -0.29147123553449     -2.98126169697313
  C           1.91352088263184      0.61814923009333     -3.45639991780760
  C           0.87132238814253      0.18929057275460     -4.14072626338396
  O           1.13189869264195     -1.93011935052396     -1.65503844046677
  C           4.37655938593600      0.19602513701497     -3.48225371740903
  H           2.85736375075242     -1.29253672194717     -3.39857311622080
  H           2.02026266515813      1.65872824406786     -3.18540015152397
  H           0.75038679285912     -0.84721021498664     -4.40799139454321
  H           0.09099933692588      0.86046236280720     -4.45295361166351
  N           2.51972193024773      1.82493076251527     -0.23908999906996
  Cl          4.33327474607822      0.33959174286536     -5.25281465653084
  Cl          4.81122788287271      1.77520452624160     -2.78633576450452
  Cl          5.65488433701516     -0.97701430017224     -3.05048461861819
