21
Coordinates from ORCA-job P E -27.816031225090
  C          -1.60500448198398      0.20716027262828     -2.20479250239005
  C           0.04589426296713     -1.65669667118216     -1.07067085512607
  C          -1.40459858959544     -1.99932451899594     -1.21802162688660
  C          -2.20385587441392     -1.09543653010983     -1.76137380343870
  C          -0.74826024857173      0.77522198754791     -1.05674901971278
  C           0.14139568437772     -0.28616734517796     -0.40167404146487
  H          -1.75445517446525     -2.95598892169613     -0.86470356476404
  H          -3.26484741967480     -1.23453906523644     -1.88045937557712
  N          -2.63755976615870      1.16525612979773     -2.56114762911345
  H           0.57798999879243     -2.40186286241493     -0.47852116229624
  H          -0.93282381222762      0.00227606386226     -3.06639547213504
  H           0.51257992977762     -1.61430440997648     -2.06038947371720
  H          -1.43629979382879      1.17928750008993     -0.31092484552553
  H          -0.11853796800365     -0.39155562752925      0.65100321730227
  H          -0.16124671705488      1.60894289576177     -1.44452255246967
  I           2.23729461303875      0.33721725703723     -0.34771762182818
  C          -3.21708583086981      0.92696389418409     -3.86746615062534
  H          -2.25292756284592      2.10509480741331     -2.53390544512657
  H          -3.69297637525565     -0.05272656409767     -3.87580064579248
  H          -2.47747474907370      0.95388066134539     -4.68321398238320
  H          -3.97636012492982      1.68320104674886     -4.05697344692914
