21
Coordinates from ORCA-job R E -27.738789368740
  C          -1.22996116725783     -0.21386366174427     -3.08541751309938
  C           0.13432481028112     -2.50084157602119     -1.64662082847415
  C          -1.16289112729951     -2.19927578438719     -1.61417790745940
  C          -1.82501782990483     -1.08916431664892     -2.25753267097091
  C          -1.32114572644261      1.04939777468048      0.12342087110342
  C          -0.11519030726697      0.54848974996993      0.26575038394417
  H          -1.82203190455154     -2.83852618429842     -1.03767856038551
  H          -2.87679707406920     -0.98330441840444     -2.03461183538886
  N          -1.79578198959847      0.91158403917908     -3.62626737234019
  H           0.52136116662460     -3.35905723863411     -1.12470675315837
  H          -0.18539284243991     -0.32661179725556     -3.33693030544819
  H           0.85528721341501     -1.91600935438499     -2.19132584439269
  H          -2.13959876458959      0.67075193871986      0.71351483872794
  H           0.13621166786756     -0.24409463595673      0.94804391679079
  H          -1.54660567094490      1.83580918851519     -0.57564646031491
  I           1.53834517938284      1.22101631928277     -0.84427485002065
  C          -3.21630255012827      1.14828106916876     -3.56413382754617
  H          -1.34036994390477      1.26649871601546     -4.45274576424316
  H          -3.53566155794153      1.15854705309310     -2.52147374598314
  H          -3.79681377589945      0.38384883103202     -4.09568524092930
  H          -3.43245780533173      2.12105428807916     -4.00179053041130
