19
Coordinates from ORCA-job NEB_product E -44.532468074850
  C           2.19684345043649      2.11824922448922     -0.24387200938241
  C           0.98593404263413      2.57943091769346     -0.98421621056967
  H           1.91041592028149      1.22828387504470      0.32259292146693
  H           2.99476015639200      1.85543324982720     -0.94036875571769
  N           1.11798562776074      2.45887456444155     -2.53002013710802
  C           2.67008029491756      3.18827631683040      0.75605561129331
  C           3.60231480917184      2.59606078387184      1.77655673489440
  C           3.41798679603209      2.70695925462572      3.07771065919055
  O          -0.05979134784831      2.94900796921778     -0.56791133560462
  C           3.36147557790607      4.33178165600551      0.00622163537047
  H           1.79712906314304      3.61420454366314      1.26272767036355
  H           4.45087324530843      2.06359535846584      1.37346043414448
  H           2.57771885751895      3.23932931069923      3.49166169163219
  H           4.10239158530697      2.26973618411650      3.78312093341731
  O           0.17176736553636      2.84667261610268     -3.15602179279143
  O           2.13778182784965      1.98077468669225     -2.96357710157295
  Cl          2.27489032398924      4.97997138511579     -1.26167482398882
  Cl          3.75164263664258      5.64352514592123      1.13617705172263
  Cl          4.86059976702069      3.79433295717594     -0.78132317676022
