20
Coordinates from ORCA-job NEB E -50.430209396140
  C           0.45942230938353     -0.85137263359488      0.77828775175624
  C          -0.90110617629774     -0.60564392027414      1.07332276655068
  F           1.37539968563657     -0.36314826070797      1.63523899916702
  H           0.75114546238131     -1.84855849917511      0.45104458669719
  C          -1.93702019104049     -1.50146257427204      0.41829159306408
  C           0.70053544443843      0.30153514560410     -0.67565242076669
  C           0.33184020975755      1.54259045347672     -0.13224665444775
  C          -1.02421933349370      1.69950542943631      0.28463926186150
  O          -1.26379877711383      0.59590463870725      1.42101961829460
  C           2.14043763355320      0.13939014208752     -1.11679352129771
  H           0.03722233744598     -0.16603247904273     -1.39934659047356
  H           1.09622964663583      2.13968114319782      0.34406655989849
  H          -1.78040101219991      1.42856657527266     -0.44895511867314
  H          -1.25749954551062      2.62206306792219      0.80271502469267
  F          -2.05784635149892     -1.21549010130697     -0.91686325030607
  F          -1.57297426219810     -2.79767472730067      0.48199788194071
  H          -2.93115079374086     -1.38293801807673      0.87158012653920
  F           3.02333710601845      0.72072334175702     -0.30618024666092
  F           2.49608851739624     -1.14714332156288     -1.23447866678268
  F           2.31435809044709      0.68950459785254     -2.33168770105386
