20
Coordinates from ORCA-job NEB_product E -50.462409857600
  C           3.21376681329610     -0.17289542022994     -1.77433297867828
  C           1.78942773802677     -0.25130270871747     -1.24395582255596
  F           4.05200790959922      0.13104297343980     -0.74043753186465
  H           3.51982431985950     -1.15744479768325     -2.15898951071812
  C           0.75881651813141     -0.78761782661253     -2.26988923617385
  C           3.31773570956468      0.89910593773486     -2.88128422471735
  C           3.00693769433046      2.27089198981706     -2.34121901609368
  C           2.05419143185932      3.04071149954622     -2.82849775142240
  O           1.45090923804626      0.07199302100995     -0.14775898331008
  C           4.72654370317930      0.89206221921381     -3.48384397186479
  H           2.64046330686252      0.63979462698879     -3.70132969305067
  H           3.62867347316824      2.58305709675516     -1.51425615181048
  H           1.42973379434158      2.73066181792812     -3.64981818666157
  H           1.86137286977775      4.01540736672298     -2.41735972973415
  F           0.28212957404878      0.24387761054557     -3.00500700015896
  F           1.33048044919114     -1.64655368265728     -3.14196539996775
  H          -0.08891587360267     -1.28449624562830     -1.77605656027922
  F           5.67135074493143      1.32063010770503     -2.64962904290670
  F           5.08891510327081     -0.33707062560540     -3.88672327484445
  F           4.77773548211738      1.67764503972682     -4.56754593318689
