20
Coordinates from ORCA-job NEB_reactant E -40.037775442960
  C           1.80339266612751      0.35186352224392     -0.17057634832217
  C           1.50431513548333      0.07982696591871     -1.44483916545013
  Br          1.65690016598438      2.01312585857528      0.67328321258606
  H           2.12917929428593     -0.44581743223753      0.47931306698680
  N           1.65462908887441     -1.33593730121251     -1.85223291915423
  C           4.05395006412524      2.55459297668112     -2.10405390600361
  C           3.18368238288359      1.94942445163609     -2.90739305144977
  C           1.70588319072424      2.08982476967853     -2.74617948346255
  O           1.09018185784153      0.81663727684258     -2.46984735342828
  O           5.39578897132232      2.50006849860554     -2.13282584151438
  H           3.72889041156646      3.21467343547511     -1.30921861511806
  H           3.49366450108731      1.28436664352227     -3.69853183144377
  H           1.23081067943182      2.38308499769927     -3.68542988822496
  H           1.45487970461291      2.82008596077323     -1.97248309366324
  O           1.63571146546040     -1.55894174784965     -3.03464764650533
  O           1.79685721004538     -2.15736733926686     -0.97455452455741
  C           6.00356089010385      1.69769017430540     -3.12163869245936
  H           7.07651140273062      1.79739056481715     -2.97097035935310
  H           5.73963376033503      2.04269724342299     -4.12545810015229
  H           5.71507715697374      0.64791048036937     -3.01311545931022
