20
Coordinates from ORCA-job NEB_product E -40.026460865310
  C           3.13199898660012      0.58934366846452     -0.94648460293586
  C           1.69609711435981      0.23454687730025     -0.94684600763547
  Br          3.74672193992262      0.87611614382028      0.88141135545178
  H           3.73447250689934     -0.21600899317966     -1.37349177166031
  N           1.33076262216071     -0.74143299437070     -2.10697216886899
  C           3.33949313295358      1.91106095449224     -1.77097414425408
  C           2.85598302698398      1.66612289597387     -3.17543988490973
  C           1.80500800413085      2.27608023575725     -3.69077958312398
  O           0.80510288043896      0.61034596586830     -0.26636508229346
  O           4.65052132985718      2.36782454037146     -1.64632161531315
  H           2.73450936734522      2.69342915173969     -1.29543892999048
  H           3.40998087581285      0.93359972333229     -3.74592379332191
  H           1.47064676051255      2.07165055843456     -4.69302889531465
  H           1.23643792183726      3.00254984197240     -3.13359738244917
  O           0.16177098575335     -0.83216275478022     -2.35016039156976
  O           2.24443393874165     -1.30618354558461     -2.66038998095462
  C           5.66034116269481      1.70240905413226     -2.37686480190925
  H           6.59679128561355      2.11456614823982     -2.00661954937923
  H           5.57735946537479      1.90217850037213     -3.44898333562574
  H           5.65696669200682      0.62196402764387     -2.20542943394194
