17
Coordinates from ORCA-job NEB E -36.952876433500
  C           0.67709250069894      0.06172887311372      0.88512587810871
  C          -0.73076988638462     -0.14003954231617      0.71238574411625
  I           1.14453098085464      2.08856693808554      1.62984622817723
  H           1.10430530314608     -0.60796392979737      1.62802090549241
  C          -1.39721190359985     -1.34721409468786      1.30619427645677
  C           1.37034439637612     -0.15969345062289     -0.53128527449812
  C           0.71748342000157      0.69126624530704     -1.49561144813315
  C          -0.69922143819441      1.04800948849264     -1.33125278527904
  O          -1.41421075207120      0.48239185432456     -0.26152588776207
  I           3.55164330299842      0.15790285556014     -0.45296792625910
  H           1.30084645860806     -1.23333061896864     -0.70334664612963
  H           1.29557479532101      1.38147632835334     -2.08698706387210
  H          -1.28314077531470      0.73077501643856     -2.20644589373039
  H          -0.79957830474714      2.14319036704857     -1.28254932192562
  F          -2.71176842379582     -1.36973845505877      1.04111725760562
  F          -0.87300005734620     -2.49474473285620      0.75401541021381
  H          -1.25291961655091     -1.43258314241622      2.39526654741842
