17
Coordinates from ORCA-job NEB_product E -37.004651255450
  C           3.02192366370920     -1.52273092627838     -1.35191227831313
  C           1.54875145740094     -1.41893714073297     -1.08308437128005
  I           3.80542556901225     -0.17724383479077      0.16635243432281
  H           3.40952409639380     -2.50761043907910     -1.08679941139885
  C           1.01599592938244     -2.44016380881903     -0.05126756110373
  C           3.39160105076704     -1.13558548540314     -2.76818271179411
  C           2.98647277759247      0.23186575813087     -3.17762810240158
  C           2.34749919565406      0.49448913485918     -4.30346827564912
  O           0.79406449182640     -0.65382075681815     -1.61456026230002
  I           5.55649611244670     -1.35753257336934     -3.02447380381034
  H           2.95913184748041     -1.88040843674338     -3.44194969922432
  H           3.27131239827116      1.02903666272036     -2.50342690674275
  H           2.06375526061352     -0.28186720868307     -4.99521514361168
  H           2.07260777545798      1.49917377871438     -4.56998383119117
  F           0.70899846429039     -3.57146527366581     -0.73242772025678
  F           1.94603601325872     -2.78594275317056      0.86107811646482
  H           0.11350389644250     -2.08235669687111      0.46344952829001
