17
Coordinates from ORCA-job NEB_reactant E -36.992601844960
  C           2.00955236033916     -0.25803901248552     -0.17011179441666
  C           1.54648429281736     -1.18633650244916     -1.00531938667127
  I           2.92391037837645      1.60075757158636     -0.53377483658642
  H           1.90997907141759     -0.42550879913412      0.88741047710013
  C           0.90308478608141     -2.42151895246444     -0.37788631919808
  C           4.20742710482115     -1.08048695065957     -4.41497616436638
  C           3.59715166886226     -0.69287898535589     -3.31251361183953
  C           2.11810561980201     -0.44769686559832     -3.25208389169204
  O           1.47545105691255     -1.32210170964513     -2.33908975291087
  I           6.27548035019762     -1.41407445452130     -4.52144258650933
  H           3.69828493790994     -1.23789637972242     -5.35100183397475
  H           4.14567538973458     -0.55690170202221     -2.39187377979814
  H           1.65332404477354     -0.68169390130981     -4.21327204639662
  H           1.91044732625112      0.59907407503826     -3.00764286410770
  F          -0.38746461903757     -2.52597444362195     -0.76198281085447
  F           1.52655386087469     -3.54076267122758     -0.80404459101056
  H           0.93065236986612     -2.41346031640719      0.72150579323267
