21
Coordinates from ORCA-job NEB E -33.575037461170
  C          -0.33934561150433      0.66385106796598      0.75944298217985
  C          -0.03819752378826     -0.59742737167710      1.40407669890328
  C           0.61693380944001      1.27904387161987     -0.20404854580234
  H          -1.02418883172705      1.33413575202605      1.26265750196986
  C           0.87982826070731     -0.57364925192798      2.43538205449191
  C          -1.02747141142664     -0.91340465266262     -2.27019614123697
  C          -0.78707558925138     -1.80519340476641     -1.32432462591004
  C          -1.50338684251305     -1.80862781823379     -0.00519999495033
  O          -0.59429857516031     -1.78559572762253      1.07911772411379
  Cl         -0.20267641827663     -0.90269166518096     -3.77366719651550
  H          -1.76854164262433     -0.13406342233175     -2.17462464825825
  H          -0.03247710460139     -2.56789894497191     -1.44869856006657
  H          -2.05612792019572     -2.74523003474650      0.11886223926718
  H          -2.18972473549619     -0.95583573590438      0.05717574439380
  C           1.60577434791946      2.22769780510832      0.49559679250518
  H           0.05648074740024      1.85661394107943     -0.94571301226043
  H           1.17819773300354      0.50048723780093     -0.72400915782266
  H           1.07082934536884      3.02895199140818      0.99959830000744
  H           2.28108196262601      2.66347044388465     -0.23671516774215
  H           2.18853000878619      1.68351155584385      1.23437349185204
  N           1.68585599131368     -0.44814563671132      3.26091352088091
