21
Coordinates from ORCA-job NEB_product E -33.671245005750
  C           1.09916032687691     -0.86958462402181     -0.98702295102681
  C           1.99821552615336     -1.46986460012448      0.07940380821770
  C           1.39878781918906      0.61478138468874     -1.25526577765905
  H           0.09019929578150     -0.91791730384104     -0.54546733676541
  C           2.42920108369842     -0.51015190511818      1.08982621978158
  C           1.04160294075778     -1.73188149478482     -2.25976949489437
  C           0.24939592433408     -2.98394053977715     -2.06958105370095
  C          -0.79704571171299     -3.29961193954453     -2.80973221891681
  O           2.30760267963054     -2.62774916189649      0.16850536665018
  Cl          2.69757246781572     -2.21801519377752     -2.79506304721435
  H           0.62909235689265     -1.13680195801457     -3.07866664094637
  H           0.60455426740867     -3.64052433538819     -1.28864223779214
  H          -1.34321884175452     -4.21350928484077     -2.65472119769686
  H          -1.15079804384882     -2.65774719566899     -3.60040359316921
  C           2.80364815735572      0.88547259362020     -1.78120459788035
  H           1.25235916562254      1.16987627986883     -0.32516529086104
  H           0.66553054086704      0.98612415488259     -1.97490850751743
  H           3.55650115056828      0.49504221286962     -1.09975524775170
  H           2.95660431243988      1.95781695046701     -1.87586466519283
  H           2.95312099304538      0.43084024913047     -2.75568694242788
  N           2.78191358887881      0.19784571127109      1.91698540676410
