19
Coordinates from ORCA-job R E -37.172369316230
  C          -0.87707078408667     -0.04986847655408     -2.99393967120167
  C          -0.66356161657134     -2.89428097869240     -2.01294918489668
  C          -1.74341553359363     -2.12091085249487     -1.96585297748537
  C          -1.80906344458881     -0.71529763943838     -2.31664939013079
  C          -1.09851209901005      1.09504999051477      0.38886743873765
  C          -0.00178598045898      0.37193160987725      0.51472760419560
  H          -2.67855355834937     -2.54243602944199     -1.62030526469466
  H          -2.70180318189440     -0.19083466849562     -2.00493927501841
  Cl         -1.02513067654910      1.61988636443061     -3.35384405476638
  H          -0.70673687505550     -3.93177892352440     -1.73053058571925
  H           0.03025873882571     -0.49290069839161     -3.37090369356880
  H           0.29729590062075     -2.52339398507190     -2.32275507540069
  H          -2.03879352405332      0.73521100536604      0.76613784726030
  H          -0.01259711822271     -0.59641873155886      0.99520085531679
  H          -1.10092713366336      2.05823080881871     -0.09092268147738
  C           1.35250752188509      0.77344279429703      0.04929151088488
  Cl          1.39028952685555      2.30017438396306     -0.83641983006579
  Cl          2.43473918720597      0.92048536260304      1.47320930631818
  Cl          2.01879065070415     -0.50186133620640     -1.00486287828752
