19
Coordinates from ORCA-job TS E -37.158700261700
  C          -1.02703175214892      0.79624190453577     -1.40440550027885
  C           0.32033859093790     -1.55636251104354     -0.48269861648810
  C          -1.01001862363673     -1.53085468991406     -0.73838284486089
  C          -1.67601510846625     -0.38795611118193     -1.22895677982331
  C          -0.44292897240139      1.12582086763825      0.73269818974327
  C           0.40046898775500      0.14085339619160      1.14818657870238
  H          -1.63053900639412     -2.35177239075527     -0.40711323158220
  H          -2.75573123319439     -0.40427967419784     -1.26767013349816
  Cl         -1.90710716312239      2.20927174881316     -1.85190239087679
  H           0.75960944650051     -2.41574000554832     -0.00513274070878
  H           0.02256196276545      0.86832825866765     -1.63398382642502
  H           1.00544078764546     -0.90467064018360     -0.99044620049807
  H          -1.47360058666078      1.10492999140600      1.03504275195588
  H           0.05897025176018     -0.65132314248477      1.79368393377370
  H          -0.05350756611740      2.07549997184608      0.41118864157502
  C           1.87243263419871      0.37031210246325      1.17739269448800
  Cl          2.47825432113618      1.16496568463235     -0.29061218923571
  Cl          2.25930541149789      1.46634765379029      2.56479185172638
  Cl          2.79909761794510     -1.11961241467510      1.43831981231127
