14
Coordinates from ORCA-job NEB E -28.644301459090
  C           0.70283975069687     -0.88493029957221     -0.29106465359756
  C           2.07919108162367     -1.23225172725098     -0.76325407813355
  I           0.35809118055280     -2.44317721884947      1.31912811974590
  H          -0.01988209852999     -1.18074813928464     -1.05325923209069
  I           3.69901364577820     -0.58746029567455      0.50820225923894
  C           0.46260439500586      0.43558041706433      0.24243119866726
  C          -0.77790203054835      1.05813510028361      0.18440148424308
  C          -1.76497346142465      0.89423993466157     -0.72327232252136
  O           2.31829093864352     -1.83240719885542     -1.75348150269904
  I          -2.96032090552674      1.41380586660960      2.70388176303153
  H           1.23833179138733      0.88374487412536      0.84822637396528
  H          -0.99790675300556      1.74508591084754      1.01374094599262
  H          -2.73544258945349      1.33003783735322     -0.56760698297680
  H          -1.60193494519946      0.40034493854203     -1.66807337286560
