14
Coordinates from ORCA-job NEB_product E -28.705461971720
  C           1.61841353055627      1.79245357574570      0.66689873626712
  C           3.00204684118484      2.40830663007588      0.76987861500656
  I           1.19072192862192      0.15633152562922      1.98053992789100
  H           1.55966442555284      1.37716531714179     -0.34803918698649
  I           4.39420497086926      1.65728043370338      2.20526719369818
  C           0.58663543342138      2.91807402819925      0.75321642474221
  C          -0.79551169006007      2.48731151620764      0.41738880211950
  C          -1.51649527003007      3.05560428659387     -0.53222392750233
  O           3.32684413283653      3.30045581905577      0.05709473095321
  I           0.60421784325940      3.80260707234631      2.75384504643255
  H           0.90770698711516      3.72353670630477      0.08762114747762
  H          -1.19740198994929      1.67765635544388      1.01225703845743
  H          -1.13922843956885      3.87293263665904     -1.12556846854106
  H          -2.51611870380932      2.72448409689351     -0.75127608001551
