14
Coordinates from ORCA-job NEB_reactant E -28.691415908440
  C           1.60188525707111      0.46711827001585      0.36157011663445
  C           2.31447968873753      1.54310113017903      0.05326468342872
  I           2.42629266083959     -1.40153899493434      0.79872611293226
  H           0.52592254381472      0.47744601638579      0.39654786918323
  I           4.41656885761085      1.57744976967086     -0.03343570715183
  C          -0.54428177447263      4.37980118435559      1.58074538201937
  C          -0.04113454066109      3.23804957874375      1.15259819244557
  C           0.48009878754276      3.06185949934174     -0.24412441017528
  O           1.86997194856860      2.77200692485569     -0.26335841614327
  I          -1.27871163517862      4.65211335715099      3.52634101750840
  H          -0.63577852421395      5.25532161998538      0.95984937735766
  H           0.04534900937845      2.38534628354722      1.81056075511531
  H           0.38845696941418      3.99405702992313     -0.80689094097966
  H          -0.07791924845150      2.27376833077932     -0.76769403217493
