17
Coordinates from ORCA-job NEB E -26.126475166730
  C           1.06870706979663     -0.81398515433004     -0.27533360476565
  C           0.70604058931112     -0.41407078160046     -1.57998125433629
  F           2.22593616513754     -0.25886460768115      0.22237131350655
  H           1.11528565257413     -1.88567734980014     -0.08972204220170
  H           0.09299006542768     -1.09842735432932     -2.16187152280224
  C          -0.14292337986041     -0.05982288904533      0.80970102481237
  C          -0.64322937569054      1.11416749572214      0.17867887573354
  C           0.32725884310512      1.79844760846131     -0.65921307455639
  O           0.47282220462266      0.85911806456257     -1.81971583329446
  C          -1.16623321639485     -1.08727424945098      1.24583729972220
  H           0.57839014406801      0.14999534902636      1.60041980924519
  H          -1.64749667863667      1.06599864163136     -0.22704724769385
  H           1.30840349680703      1.93066813146508     -0.19871998171031
  H          -0.01261584231498      2.71835388824417     -1.12728716895225
  H          -0.68422220828449     -1.96824915509717      1.66256824807332
  H          -1.78933270794300     -1.39205932760246      0.40797816493336
  H          -1.80978082172497     -0.65831831017593      2.01133699428660
