23
Coordinates from ORCA-job NEB_product E -40.404718481030
  C           1.37067253838277     -1.63937740727007      1.15896154494523
  C           0.47518160700965     -0.41856741081710      0.97028649449308
  C           1.78679701817783     -2.14354994660085     -0.21705188693023
  H           2.27432425471075     -1.32173447788418      1.68975226110226
  H          -0.41978032422175     -0.62539239186699      0.35700801363845
  C           0.57477383185231     -2.63512942429193      2.03588601493733
  C          -0.02802141283042     -1.84460838638608      3.16701256437288
  C          -1.32340112996830     -1.75529586623838      3.39999626816969
  O           0.68553129072923      0.65458368646722      1.44753003860392
  C           1.42730670149911     -3.78976532772965      2.60234582426089
  H          -0.23700126001167     -3.05287522760176      1.43510050912075
  H           0.68352968673094     -1.35171333258730      3.81549980716126
  H          -1.71463824329810     -1.19614807411868      4.23193931479542
  H          -2.04926902540071     -2.24043626698129      2.76777499719743
  Cl          0.45660808755052     -2.94053663975256     -1.07670841512945
  Cl          2.29438783532688     -0.72834838406040     -1.20500234170945
  Cl          3.16542567465077     -3.25768363126721     -0.14582596791959
  C           1.12971430159654     -5.12156850074400      1.92461966727515
  H           1.20832766767594     -3.88758560204260      3.66816512394445
  H           2.48822685705710     -3.55802214033978      2.50928070363180
  H           0.08709724009308     -5.39538874922761      2.06900375871974
  H           1.75066767093508     -5.90466586810873      2.35258346906476
  H           1.32883913175244     -5.07349063055009      0.85824223625423
