23
Coordinates from ORCA-job NEB_reactant E -40.407233853240
  C           1.52891909351176     -0.28909640966179      0.03247986210692
  C           0.74763944690216     -0.91633426907957      0.91253836480628
  C           2.05766146792571     -0.89477522132967     -1.20228464999203
  H           1.80729781891208      0.74126798102344      0.19057339478673
  H           0.45769940690989     -1.95235771061098      0.77293148078549
  C          -0.01786804855308     -3.56421666231897      3.09064358636757
  C           0.28963334341321     -2.30984298149703      3.37849014430036
  C          -0.48672043000893     -1.12407103423387      2.89117315336069
  O           0.29255394116643     -0.30839818607743      2.01341595605502
  C           0.78606166265213     -4.75402718918790      3.49875555241775
  H          -0.90223102182494     -3.78329814216309      2.50375703602733
  H           1.17597438399472     -2.07431126957132      3.95134523282439
  H          -0.75011857636178     -0.45823693537631      3.71711903286834
  H          -1.40310700890183     -1.44571745647409      2.38030142812331
  Cl          1.35854253940275     -0.07901782162704     -2.64527888414759
  Cl          3.83413115439086     -0.67752756178451     -1.28403098266515
  Cl          1.71940631745775     -2.62356368760149     -1.34893539193585
  C           1.31493189527110     -5.48893404365165      2.26581545328754
  H           0.15476899445157     -5.43460496628917      4.07627525698573
  H           1.62005345713641     -4.44207963412384      4.12913725278439
  H           0.49274478103662     -5.82057245970404      1.63561707828786
  H           1.89359947562042     -6.35951110718350      2.56361273218977
  H           1.95382590549498     -4.83267323147618      1.67904791037512
