19
Coordinates from ORCA-job NEB E -33.364883375380
  C          -0.26060773328955      1.39967520845791      0.76867711197928
  C          -1.59997690487894      1.11518409343357      0.54609854300243
  I           0.68067439802719      2.60986381436134     -0.67613610328743
  H           0.07800476400238      1.60124868970442      1.77241646324440
  O          -2.31915293714398      0.75332652034727      1.64745215371215
  C           0.39099618026726     -0.59467774114970      0.45150121489175
  C          -0.06929108538470     -0.76094148260115     -0.85269466620959
  C          -1.44603965721342     -0.78594879925165     -1.08860703709419
  O          -2.05576985179813      0.84350657293584     -0.60414054650568
  O           1.67866675408398     -0.60954259145676      0.84519027207453
  H          -0.23059198210818     -0.94115467804252      1.27322325080113
  H           0.58248368771998     -0.50478025646469     -1.67428648889783
  H          -2.07626638917883     -1.33080617645249     -0.39729698889490
  H          -1.78945485601873     -0.79916029136691     -2.11118631982341
  H          -3.18258745565583      0.42254534600733      1.36298809159595
  C           2.69640129686429     -0.60139643684550     -0.14013979553360
  H           3.63362276245648     -0.62154182658795      0.41255896677435
  H           2.66392539822521      0.29454015266628     -0.76146144839107
  H           2.62496361102351     -1.48994011769465     -0.77415667343827
