19
Coordinates from ORCA-job NEB_reactant E -33.394651858220
  C           2.21617801718205     -0.33821223252736      0.31839254026362
  C           1.47172696314208     -1.41894442479065      0.54556127728794
  I           3.47666819893458      0.14215550299763     -1.28320641523835
  H           2.17037076338314      0.44278160305810      1.05439813031877
  O           0.73174837220318     -1.41281028865479      1.68474071009931
  C           3.93105337585861     -3.46204751752649      0.21677097530229
  C           3.44977937182439     -3.20734455203665     -0.99436419721441
  C           1.99468249785198     -2.95414913930887     -1.26131464721709
  O           1.24964372733732     -2.57595570456836     -0.11735020208729
  O           5.21024135074428     -3.68644549590621      0.58016597131236
  H           3.29094703514477     -3.50695221580647      1.08829377237437
  H           4.07739941354888     -3.16996970435272     -1.86943275196112
  H           1.50053507072610     -3.87557932751808     -1.59327762525433
  H           1.87856346920304     -2.20887269678677     -2.05586476961384
  H           0.22868088211000     -2.23827434817378      1.71679507984405
  C           6.19519166112934     -3.61153510046228     -0.42535566935927
  H           7.14734189792498     -3.77965287419687      0.07395083980593
  H           6.19774288406708     -2.62587645586601     -0.90047656334483
  H           6.04100504768418     -4.38031502757336     -1.18882645531813
