19
Coordinates from ORCA-job NEB_product E -33.415307261920
  C           2.91336365235971     -1.52170200960694      0.83183738851277
  C           1.41238211990424     -1.59724887308373      0.85485190356779
  I           3.38647162544193      0.40907205280464     -0.00495611331186
  H           3.30690043828424     -1.48025461874451      1.84673125540558
  O           0.91992521078229     -0.91924090151010      1.89545499207973
  C           3.60553947667469     -2.62121432681287      0.03759734612450
  C           3.08366335948376     -2.75664233652433     -1.36524937003975
  C           2.65922970225074     -3.89150993153288     -1.88523160208669
  O           0.72283797301877     -2.17077780224811      0.05895935723235
  O           4.97942078201292     -2.27656451142966      0.06577176517948
  H           3.44926915571677     -3.57515398875525      0.57547926904467
  H           3.12366263863831     -1.85174786675603     -1.95587700787755
  H           2.62177790474207     -4.80326389462349     -1.31116018057861
  H           2.30827451331218     -3.95073233918753     -2.90050209771320
  H          -0.05053430197096     -0.91994974355239      1.88071357014073
  C           5.83748204088209     -3.25068092620221     -0.47047204242123
  H           5.75736406268615     -4.19276787581614      0.08555051396527
  H           6.84445229833296     -2.85169611921549     -0.36962474445228
  H           5.62151734744715     -3.44312398720300     -1.52647420277171
