17
Coordinates from ORCA-job NEB E -30.381629407370
  C           1.05604697694772      0.33153862975164     -0.48229107553039
  C           0.25252329445269      1.42716682560165     -0.20352066898195
  C           0.75811653587051     -0.51378248470567     -1.68863595425011
  H           2.11099384763306      0.44022495618727     -0.25294360237714
  F           0.79517116735095      2.34964807899201      0.66988710188701
  C           0.36642131326437     -0.79705854160276      1.03448093819731
  C          -1.00469558468184     -0.78156008336840      0.84015643924309
  C          -1.67159336820859      0.46545511352238      0.94078873484242
  O          -1.01176537953740      1.41661376137743     -0.26016681991278
  F           1.02419329170437     -1.95674243881444      0.84422258731510
  H           0.83769607111140     -0.22605889456523      1.82892396542380
  H          -1.43586089366733     -1.56622929987804      0.23710460465599
  H          -1.43534918342058      1.08251233805214      1.80210948085219
  H          -2.72130966143457      0.48217530704444      0.68115471828435
  H          -0.30557407352264     -0.50093711283345     -1.91167483428003
  H           1.08659799545540     -1.53843662515396     -1.53342641895924
  H           1.29838765068248     -0.11452952960700     -2.54616919640959
