24
Coordinates from ORCA-job NEB E -38.977877301380
  C           0.46609500966034     -0.40599406292359     -0.01695750501751
  C          -0.73159080509423     -1.03088969354608     -0.47940751893465
  C           0.54301378137029     -0.13742412261200      1.47362786632273
  H           1.36931910411181     -0.88265426840709     -0.39944931222849
  N          -0.62295696870806     -1.80091103253759     -1.70748166100511
  C           0.41187701580611      1.17370223651100     -0.88361045102551
  C          -0.86862640715907      1.68738828888255     -0.50400990633452
  C          -2.03436159430545      1.02070695143979     -0.90393528254411
  O          -1.87519329436775     -0.54401125328109     -0.21421485688871
  N           1.53688328793714      1.94258123214183     -0.56262314971327
  H           0.48569811255217      0.82658971053850     -1.91368224991922
  H          -0.90441766051679      2.33178126666738      0.36281811106194
  H          -2.11954135045350      0.68862861115513     -1.93293761313179
  H          -2.97237668045625      1.35329672242503     -0.48275767783475
  C           0.84769897392577     -1.43674336319188      2.21488630481128
  H          -0.40915700732229      0.26495342977349      1.82211056101718
  H           1.33082861456797      0.58716185143522      1.68986746865331
  H           0.04514362168811     -2.15382835105791      2.06360905006461
  H           0.94605875371578     -1.24516856363974      3.28043443454120
  H           1.77503205411423     -1.87765438217738      1.85602624454103
  O          -1.63294913789499     -1.94670838800013     -2.36612942177011
  O           0.47376753737193     -2.25452068605209     -1.99592268428300
  H           1.52029836624039      2.34276632205556      0.36475746643964
  H           2.41945667321633      1.49695154440110     -0.76501821682218
