17
Coordinates from ORCA-job NEB E -29.552478920780
  C           1.08085850128592      0.19604921201065     -0.42222215470970
  C           0.25302851081912      1.29941430582352     -0.61748034997690
  C           0.94408153799577     -0.96323294081388     -1.37212184227632
  H           2.10205726687370      0.39706975590883     -0.11513080733042
  Br          0.83666043428955      2.96384142998564      0.25968428965778
  C           0.23039043748605     -0.42534583749045      1.24832815697041
  C          -1.10547042643053     -0.55878955339297      0.88121459269591
  C          -1.80196936533239      0.61606997433181      0.49322545131805
  O          -0.99234025876704      1.20082909319409     -0.82634317667925
  Cl          1.11474209462493     -1.85346258789804      1.69296590014499
  H           0.53528250262876      0.41782300662565      1.85989985730734
  H          -1.44778636040689     -1.51425326930416      0.51364512841772
  H          -1.71019241276365      1.47914524155096      1.14805205536714
  H          -2.80464951661987      0.48389101143415      0.10800337809487
  H           1.27580710141563     -1.88666409051041     -0.90489665473361
  H           1.57419814245747     -0.77964409000747     -2.24148887729696
  H          -0.08469818955652     -1.07274066144793     -1.70533494697105
