17
Coordinates from ORCA-job NEB_product E -29.597011941070
  C           1.61984514538271     -0.62325961813106      1.42290460628847
  C           0.87225123067979      0.54089405280710      0.84869808521065
  C           1.34757584464406     -1.86953200318325      0.58419510324502
  H           2.69068097856587     -0.39073727519934      1.41032415603533
  Br          1.46935920449243      2.25781271425855      1.62096540661768
  C           1.19801564871764     -0.77147267760953      2.90201675539732
  C          -0.25969792699162     -1.04234077759848      3.07260363627915
  C          -1.07981132356990     -0.20485077522031      3.68029615110446
  O           0.01149581529484      0.56184957534316      0.04523210881469
  Cl          2.13622241343482     -2.11778976088325      3.63793824733303
  H           1.48809020965676      0.12514806585823      3.45714681391615
  H          -0.61353113815741     -1.98269026449802      2.67651047698177
  H          -0.73819608815042      0.73159494368166      4.09079678529417
  H          -2.12870210218298     -0.41928598169242      3.78603101749262
  H           0.27937007628922     -2.02754562404104      0.46247075469116
  H           1.78673472293829     -2.73853204640258      1.06579752562134
  H           1.78859728895589     -1.75536254748941     -0.40302763032303
