24
Coordinates from ORCA-job NEB_reactant E -35.645213506440
  C           1.37606869058987      0.04249968196173     -0.10913535587476
  C           1.60585085161401      0.44560323753235      1.13809055774856
  O           0.74994343229778     -1.13886155793254     -0.37903345135922
  H           1.68752216188099      0.64465191367907     -0.95192379066740
  I           2.69426003816381      2.26389510934825      1.39322246152103
  C           4.03382048443902     -1.42448947903810      3.76823371555565
  C           3.36687240937176     -1.35297288237556      2.62819099273536
  C           1.87634276516006     -1.44933811245691      2.52193432040255
  O           1.27618977446322     -0.16600929167323      2.28309984995813
  C           5.51607584784341     -1.29882700849979      3.89714496043933
  H           3.49948761963534     -1.60515531987295      4.69257504026578
  H           3.88980160119658     -1.16395999613241      1.69882455270021
  H           1.43408229310047     -1.77771158183258      3.46417742236828
  H           1.58353039839796     -2.13269759957291      1.71563702628879
  C           0.32385400238189     -1.29768184182087     -1.71239618838485
  H           1.15813077359934     -1.18213349730184     -2.41207473888177
  H          -0.46041098830619     -0.57739701137022     -1.96557645325055
  H          -0.07530772548598     -2.30747066685561     -1.78584941375102
  C           6.12276446338035     -2.54641829489076      4.53840403386670
  H           5.74082890989459     -0.43159883281697      4.52452394205500
  H           5.96273588249256     -1.13057231314707      2.91574889840804
  H           5.69907896077265     -2.71286186990930      5.52629049434556
  H           7.19952289506783     -2.43493599132029      4.63944267700514
  H           5.92135445804867     -3.42255679370147      3.92594844650544
