24
Coordinates from ORCA-job NEB_product E -35.662654294600
  C           2.82951712435429     -0.45865984053674      1.20712578935124
  C           1.45538928148040      0.16680188419190      1.18691026812996
  O           2.84062596923679     -1.62273470639526      0.43413154325362
  H           3.55671296770547      0.27722007623352      0.82171251663371
  I           1.49698445227616      2.24812118443670      1.84355594072563
  C           3.17291967514793     -0.78323444199387      2.68373049667316
  C           2.19285376904111     -1.78343076223100      3.22276733556830
  C           1.51730948544912     -1.61213750380063      4.34264441602833
  O           0.42951051234161     -0.32004808784211      0.87915939677125
  C           4.63325758852573     -1.24630044105639      2.84457139752230
  H           3.07579520121078      0.15277937092414      3.24563372491809
  H           2.05990227331825     -2.66679900737071      2.61658677101292
  H           1.63350385383439     -0.72799841090853      4.94953725754452
  H           0.82170566364188     -2.34911708124759      4.70493775489634
  C           2.78435319383568     -1.40291631526875     -0.95594932336025
  H           3.60000353293135     -0.74673047043635     -1.28393644204610
  H           1.82831377953411     -0.96661049831514     -1.26178702814016
  H           2.89477689740213     -2.38056533658115     -1.42008923340961
  C           4.90947630022959     -2.67441073100278      2.39175999939942
  H           4.88465653713112     -1.15783913918455      3.90398286171246
  H           5.27722008581142     -0.55602602415982      2.29411583094914
  H           4.38707554896051     -3.38431484636670      3.02739815011108
  H           5.97605115125600     -2.87781980580590      2.45771330458208
  H           4.58728515534419     -2.82412906528227      1.36638727117255
