17
Coordinates from ORCA-job NEB E -38.152225403440
  C          -0.33490107688338      1.14681289102408     -0.38017752284072
  C          -1.45979726759539      0.70685949158119     -1.06552999959874
  Br          1.50400622401020      1.27308583076584     -1.77139041238763
  H          -0.31295804782495      2.19386900529955     -0.11064601260757
  H          -2.20908159886984      1.38153651633816     -1.44722481436046
  C           0.08964539466682      0.14585231360963      0.73514927006061
  C           0.13590770740730     -1.19977169516269      0.12938141463587
  C          -0.89161007684007     -1.57648481258955     -0.84612032951103
  O          -1.73409846350111     -0.56558636062306     -1.34205459464264
  C           1.39289011649116      0.50405163099904      1.45486668180256
  H          -0.67794121490029      0.23432333723524      1.52159179162511
  H           1.07720286391896     -1.71849688444468      0.08597267570125
  H          -1.58410094005727     -2.32893021543423     -0.43843185639033
  H          -0.41111436827125     -2.04479413171123     -1.71514668829528
  F           2.50249684476297      0.05750048418457      0.87209290593343
  F           1.52893161480479      1.82424715072632      1.62661985359229
  F           1.38452228868135     -0.03407455179820      2.69104763728326
