23
Coordinates from ORCA-job NEB_product E -47.440582613660
  C           2.65899885990982      0.14991299484687     -1.79900506647393
  C           1.31882045245288     -0.29105443039147     -2.36052692311882
  C           2.37148460282906      0.76060010214092     -0.42081118291076
  H           3.31354101077720     -0.71717507227226     -1.66874060083847
  C           1.08655442374794     -1.82067125682767     -2.36218212914931
  C           3.38323462138875      1.19011607295000     -2.68582967445075
  C           2.49347947205233      2.33003932673513     -3.09725613459503
  C           2.59557047744808      3.54208608187354     -2.58513119662547
  O           0.42510174615149      0.44977917771294     -2.65641618616089
  C           4.00949836499391      0.54854187063328     -3.91893136541842
  H           4.21361273495653      1.59343126396576     -2.08955777477401
  H           1.74381374969564      2.10855039771990     -3.84312880880119
  H           1.94220318493248      4.33718957509874     -2.89678214263745
  H           3.33252538674818      3.79029147259299     -1.83828518377368
  H           1.72253097132397      1.62689207238697     -0.52498530301936
  H           3.30168568569471      1.06645667425382      0.05147480345494
  H           1.88342759262346      0.03268061746643      0.22267723782094
  F           0.21658086861865     -2.17547249821395     -3.32257484158151
  F           2.22718105417275     -2.51532452755305     -2.57771514170248
  H           0.67538069605493     -2.13933766735876     -1.38762451961501
  Br          4.88348555998783      1.92660667483624     -4.99739112971239
  Br          5.39227378025577     -0.74634871556506     -3.41847024628369
  Br          2.70141470318362     -0.36119020703132     -5.04340648963328
