22
Coordinates from ORCA-job NEB E -51.355885929210
  C           0.01672832118994     -0.07865672201005     -0.96909903489640
  C           0.43406626778601      1.28082065020038     -0.76787864583696
  C           0.94596913572467     -0.98450003931509     -1.72181011411118
  H          -0.99981701816069     -0.15224673110597     -1.34335415016673
  N           1.74512773490039      1.62764977459392     -0.71143937081081
  C          -0.38158437472780     -0.54042651389493      0.90996450190511
  C          -1.26072342768437      0.48649555659278      1.30255987399644
  C          -0.80465238649517      1.81152948058341      1.30534771607776
  O          -0.42105103946892      2.12864503350225     -0.33973910697539
  C          -0.95159320528153     -1.92672123114072      1.06006111250293
  H           0.64346513559118     -0.48209086690473      1.26966005601428
  H          -2.32179940796202      0.31891863008429      1.17798585677377
  H           0.17676175087713      2.00860853689312      1.72248447882623
  H          -1.52794708681903      2.58938426954277      1.50111054977772
  Cl          0.15749634502234     -2.47604979380745     -2.26230774343717
  Cl          1.50433767853669     -0.15267396896944     -3.24772526698137
  Cl          2.42077147851490     -1.39554924510937     -0.80526888309463
  H           1.93899770535363      2.60808356279255     -0.58396126226148
  H           2.44991769887920      1.07127142548467     -1.16423733543836
  Br         -1.64367713891315     -2.11714754517128      2.90858346396919
  Br         -2.45928523214453     -2.26195934877354     -0.12207563394928
  Br          0.33849106528113     -3.36338491406757      0.88113893811631
