22
Coordinates from ORCA-job NEB_product E -51.399826510240
  C           1.49307535618780     -0.86858144874849      1.92044799311632
  C           2.94981472698186     -1.16916713841098      2.37742522194546
  C           1.32773396495233     -1.14963055078127      0.42413027631983
  H           1.44542865893728      0.22716290803663      1.97641420059106
  N           3.42406486015113     -2.39445472749560      2.09928798404966
  C           0.37399462930694     -1.35535994617792      2.90147522496511
  C          -0.93347991167317     -1.62037581984904      2.20063866104068
  C          -2.00198799559780     -0.86156030835865      2.35761381915106
  O           3.57637563411101     -0.32005585760733      2.95923837787627
  C           0.65740631157177     -2.53520359003542      3.83899680430297
  H           0.21688428947603     -0.51375217422574      3.59068826245148
  H          -0.97201262527741     -2.50615466933804      1.58331634531385
  H          -1.99479479858773      0.01977126625205      2.97762870284683
  H          -2.92828299697859     -1.09068459803682      1.86195011128599
  Cl          1.12456035768407     -2.85209635932181     -0.04234814138138
  Cl         -0.04799928396748     -0.23333866755551     -0.25690652100385
  Cl          2.80433238220215     -0.54336953237883     -0.40304550608240
  H           4.38414025786905     -2.57867398709978      2.34519856202521
  H           2.95698237679849     -3.04461481255649      1.48902780291473
  Br         -0.92502041282869     -2.76752093654990      4.98782574017692
  Br          0.93138385994204     -4.25054877844851      2.97814509009764
  Br          2.13760035873891     -2.22869027131256      5.07695098799655
