22
Coordinates from ORCA-job NEB_reactant E -51.390420588790
  C           1.36706154512224     -0.50967112060017      0.12977332417811
  C           2.14732922121859     -1.14020571681066      1.03968101639981
  C           1.88467714343664      0.00777787010815     -1.13972455509532
  H           0.31951851181068     -0.35446707947282      0.30400365250800
  N           3.47050846953102     -1.39530864434130      0.87974614460008
  C          -0.81086061027979     -2.12699311778667      4.64997244710837
  C           0.10567160692337     -2.42753394920085      3.74377453844416
  C           0.31480846843408     -1.64823386029907      2.48658050293332
  O           1.70134921625495     -1.64658666438043      2.21367745688921
  C          -1.08837352816843     -2.88074278035629      5.89098136209272
  H          -1.46060005682304     -1.26922772806855      4.52105767789240
  H           0.76893551828621     -3.27367548808455      3.85808705295284
  H          -0.06249563378180     -0.62300618214265      2.58869624228086
  H          -0.22660724011833     -2.14301405307056      1.66571338089870
  Cl          2.60815603279030     -1.28167657092434     -2.17364289966428
  Cl          0.60731717566693      0.79386683772143     -2.07202072489945
  Cl          3.20497749917081      1.23667975437470     -0.89904514667329
  H           3.95836663024901     -1.71933729342150      1.69783002018404
  H           3.98789928596636     -0.83313218384184      0.22504581360326
  Br         -0.91062607023477     -1.67381803791159      7.43975348808094
  Br         -2.95479985709440     -3.53275261718248      5.84806061118196
  Br          0.06328667163937     -4.40854137430794      6.19479859410356
