17
Coordinates from ORCA-job NEB E -42.134412066050
  C           0.09834925299076     -1.51208772021348      0.05679202745584
  C          -0.88697727575385     -1.37317591120103      1.04547061487634
  Cl          1.72754125145995     -1.71393385158230      0.61714181691424
  H          -0.11523654546530     -2.12860101305077     -0.80806336554193
  Cl         -2.53329821809521     -1.68096821842124      0.46753649019008
  C           0.01901471670060      0.34987027706642     -0.60992630699402
  C           0.23554154059697      1.08763663456255      0.55872751351527
  C          -0.73302092825134      1.01918129941581      1.58253790427877
  O          -0.75292395555478     -0.61068514441000      2.03701468897564
  C           0.97363785422789      0.49745086015537     -1.76434742095125
  H          -1.00446111098853      0.27329255337570     -0.97015318222332
  H           1.24532013005130      1.37146682801668      0.81303815475080
  H          -1.77570196104115      1.10198865851296      1.29274281641660
  H          -0.50172919990128      1.50116386905358      2.52225235748640
  Cl          0.51557008513336      2.01069739962102     -2.62104224528609
  Cl          2.66840897748744      0.64040359880873     -1.28797298695477
  Cl          0.81996538640316     -0.83370011971000     -2.93174887690859
