17
Coordinates from ORCA-job NEB_product E -42.181443436810
  C           1.93275262061502      1.48335379563429     -1.95186699269639
  C           0.49949581821909      1.29535516454778     -2.39422483145325
  Cl          1.90283115509446      0.88539541297773     -0.26193714089693
  H           2.62639111911750      0.84769009390036     -2.50395923644949
  Cl          0.26648667765927     -0.21494585379049     -3.24759985820148
  C           2.35900907928649      2.95773168897178     -1.97870858122870
  C           3.50363639411075      3.21907510557972     -1.03636032607431
  C           3.47212440361548      4.15137389706910     -0.10465612429068
  O          -0.41026102213232      2.01360542349743     -2.14973069348184
  C           2.75437389944427      3.35396558488764     -3.40550314463539
  H           1.49867813315497      3.57228923750117     -1.68946889893650
  H           4.36932336571956      2.58801782400849     -1.17125499284012
  H           2.61311152583744      4.78516503574445      0.04006140278269
  H           4.30651041733576      4.31505673061089      0.55407978033120
  Cl          1.43307082696882      2.99834645408319     -4.55111845411933
  Cl          3.10543951393635      5.09079735388587     -3.46612524473747
  Cl          4.19642607201711      2.46822705089059     -3.94792666307202
