19
Coordinates from ORCA-job NEB_reactant E -35.983743840110
  C           2.35275727443241     -0.28236995887026      0.57837303277777
  C           1.53207713243725     -1.04992068080540      1.29216673403935
  Br          3.42833278929471     -0.70747004559476     -0.93931893166468
  H           2.46966944638775      0.75328668666152      0.84493926410667
  C           0.78899492859390     -0.45188353297186      2.45651431321802
  C           3.87614959520425     -3.25976541398883      1.55298895546406
  C           3.20388508539442     -3.53362493670240      0.44087010539882
  C           1.76843832294534     -3.20176824269008      0.20853639761167
  O           1.19398931642546     -2.36062981532358      1.18196147256504
  N           5.25202746622679     -3.62677533484296      1.69949701462053
  H           3.47322448172451     -2.74863785125965      2.41383408815545
  H           3.70989803875558     -4.04646068488441     -0.36699868960000
  H           1.18628640899706     -4.13009031568553      0.27280215553372
  H           1.63314419269469     -2.79939190056506     -0.80193582911340
  H           1.07112067652464     -0.96933114136968      3.37138845376643
  H          -0.27937095155807     -0.59627920257955      2.31074060180564
  H           0.99983782545121      0.60614302495401      2.56239550948775
  O           5.78259319073074     -4.25019288535509      0.80684028685929
  O           5.79244477933737     -3.28563776812641      2.73040506496787
