19
Coordinates from ORCA-job NEB_product E -35.991138082510
  C           3.01555087218591     -1.38685451999321      1.69571777315624
  C           1.54184038941398     -1.39253279000022      2.11361318512240
  Br          3.38188483782108     -0.02994328145795      0.32844106548786
  H           3.60718185825439     -1.07796653603183      2.56827585497759
  C           0.87951604080379     -0.05606986382590      2.20231935883556
  C           3.48171246426609     -2.77354858287732      1.25223488037315
  C           3.12910678138199     -3.11107189464398     -0.16551772351215
  C           2.07443212834159     -3.83450459716381     -0.48880702537213
  O           1.00044037621272     -2.43235960422101      2.38096402550259
  N           4.95540535848199     -2.92001020976725      1.47593109082427
  H           3.00258405111338     -3.49266255515776      1.93401938301617
  H           3.78871843466577     -2.70633035497157     -0.92013893604420
  H           1.41181303952473     -4.24028892820014      0.25809572976797
  H           1.82733778280059     -4.03631560236128     -1.51578669959498
  H           1.55517673491031      0.69951432137457      2.59554114265500
  H          -0.01088636470982     -0.13151052351038      2.82122424984579
  H           0.57797485372426      0.25323413441820      1.20125579377067
  O           5.56179718427225     -3.60660436474244      0.69837337648175
  O           5.41941317653501     -2.36437424686670      2.44234347470643
