15
Coordinates from ORCA-job NEB_product E -30.639743700600
  C           1.48169229901725     -1.65639473721100      0.69770813175914
  C           2.73404489611844     -1.19753903578446      1.42092376211536
  I           2.06945150244429     -2.40241353170053     -1.23370381502207
  H           0.84245170637359     -0.78580774070026      0.51631228725265
  C           2.43206380439142     -0.69418058684615      2.75276412764361
  C           0.69774482205741     -2.66928186254122      1.53019920142906
  C          -0.53151150589166     -3.18093977964788      0.85967508798033
  C          -1.74213491130963     -3.04184136569389      1.36767719933145
  O           3.83925619004695     -1.21641949119229      0.96455491963256
  Cl          1.79075895118569     -4.06054550097131      1.91148549942827
  H           0.44329920954088     -2.21123203254439      2.49245995503765
  H          -0.37259857566187     -3.69962956697516     -0.07492679589450
  H          -1.91535358514748     -2.54003187511260      2.30587957963115
  H          -2.60965100337161     -3.42718306430484      0.86180766864612
  N           2.17858620020633     -0.29185982877402      3.79318319102922
