26
Coordinates from ORCA-job NEB_product E -54.280615490550
  C           2.90133381667737     -0.96117570736044     -0.87554448689256
  C           1.40873857465647     -1.33740185621713     -1.05481395175042
  C           2.95217166590789      0.52640300100609     -0.56210469335989
  H           3.29777307409882     -1.47405262431271      0.00840928499351
  C           0.89707256150661     -2.42856869391732     -0.15127000321214
  C           3.62749057043977     -1.55900293940357     -2.11875962611503
  C           3.13045703523390     -1.07570386387591     -3.45691631408978
  C           2.23030811514826     -1.72860612142877     -4.16720567315845
  O           0.72997930866617     -0.77316580563074     -1.86739075100245
  C           5.16010410715055     -1.50721434892340     -2.09738722739273
  H           3.38743343962268     -2.62809388276429     -2.05338313269385
  H           3.56806662652708     -0.16828331966945     -3.84040586265215
  H           1.77789642480037     -2.64603045591351     -3.82812822219953
  H           1.89657415514305     -1.35562520887579     -5.11847951782342
  Br          1.57817806049553      0.87100085907240      0.82664933619634
  Br          4.62015744582115      1.08752345185232      0.28435772908831
  Br          2.55846057216184      1.71146400860302     -2.02816108902934
  C           1.61496243791589     -3.76561181988186     -0.33775409360197
  H          -0.16799848162811     -2.54925748583046     -0.35603782083493
  H           1.01201176351718     -2.10093175712945      0.88488652228768
  H           1.53040845158524     -4.10774669025287     -1.36665600359662
  H           1.15025713497881     -4.51014941393737      0.30320970016105
  H           2.66674739510375     -3.70344471146824     -0.06833898723173
  Cl          5.81464130026691     -2.01919477074158     -0.52059551504088
  Cl          5.74593434286884     -2.67897368533149     -3.32309987850544
  Cl          5.83444010133395      0.07494384233251     -2.52857972254357
