18
Coordinates from ORCA-job NEB_product E -30.053211781830
  C           2.47387806036985     -2.46614333209676     -0.08919434932926
  C           1.23517007513502     -2.37642060544741      0.80902502576521
  Br          3.32772984318129     -0.72889197540302     -0.38396888463206
  H           3.22301558368779     -3.05570623711602      0.45334719432668
  C           1.22560533817055     -1.28948150910765      1.83559575687299
  C           2.13951540530951     -3.15930788635585     -1.42240913555479
  C           1.26993760577631     -2.30059808398177     -2.30606185975310
  C           0.00703956027827     -2.57796561234799     -2.56260590362896
  O           0.35726300000252     -3.18877190125536      0.68391920467004
  C           3.35995480933533     -3.50295479838822     -2.11754358728931
  H           1.60430296330020     -4.08561015027872     -1.17327704771017
  H           1.74997719594175     -1.42347844124550     -2.71888189492626
  H          -0.48179495570446     -3.44679888971183     -2.15351940237480
  H          -0.59198737137022     -1.93731235820744     -3.18624264116763
  H           2.19621726342580     -1.19050014077720      2.31638329328269
  H           0.45464975698955     -1.49386236283005      2.57424074735682
  H           0.99934434075168     -0.34224480782431      1.34588052588266
  N           4.33488152541928     -3.75235090762492     -2.65788704179077
