18
Coordinates from ORCA-job NEB_reactant E -30.043808396290
  C           1.93283459295426     -0.55685268970000     -0.30454464270118
  C           1.20653933812699     -1.37943664915414      0.44919383931342
  Br          2.10227059267221     -0.44655284222292     -2.19884731914247
  H           2.52745188220730      0.20417340446084      0.16963817995208
  C           1.22870117159055     -1.21007133293507      1.94586281660050
  C           2.01173768944344     -3.86978236368052     -2.76743499019722
  C           1.57334718862016     -3.70396618387656     -1.52148291166138
  C           0.32262224277325     -2.96599737362728     -1.16120056515806
  O           0.37856338338395     -2.40593343531257      0.13669139088373
  C           3.17640584303226     -4.60593665059670     -3.05709521477160
  H           1.49860271998449     -3.44374965375727     -3.61938609395128
  H           2.11473785460090     -4.12947829825938     -0.68607834757576
  H          -0.50391868755880     -3.68568551944714     -1.09232606392360
  H           0.05844052247755     -2.22062728147444     -1.91801179699010
  H           1.77404923253270     -0.32004232209919      2.23910146318285
  H           1.69103754258787     -2.08298027134173      2.40346203606155
  H           0.20559427655331     -1.14644497918544      2.30991496488148
  N           4.12088261401761     -5.21013555779050     -3.29675674480294
