17
Coordinates from ORCA-job NEB E -26.711847896000
  C           0.79628088914380      0.95241103955833      0.23362226699447
  C          -0.36271082743689      0.57090203693648      0.94368480139799
  C           0.67449234830545      1.84893105917992     -0.85311478745887
  H           1.70525527090603      1.09682619630097      0.81068085402126
  N          -0.23286947742447      0.12672948788771      2.24519660898363
  C           1.04709937306798     -0.74275406385056     -0.79414753034031
  C          -0.17334881302092     -0.89431938658465     -1.43492823146971
  C          -1.32044125490674     -1.07964446592445     -0.62156056131139
  O          -1.45793669033537      0.29026790539814      0.32701225540311
  H           1.91934521607133     -0.51123055388739     -1.38861451290327
  H           1.25426658269226     -1.35311873564299      0.07568889164817
  H          -0.30805923465846     -0.43210474152753     -2.40162773074789
  H          -1.24259988719778     -1.82045784716027      0.16982541809553
  H          -2.28446799917078     -1.08316467058188     -1.11258270777066
  N           0.59572369230853      2.57602326721851     -1.73525021772822
  H          -1.09917381800497     -0.07614578336879      2.71866158761860
  H           0.48914462966101      0.53084925604844      2.81745359556756
