17
Coordinates from ORCA-job NEB_reactant E -26.743228312080
  C           1.76096058033960     -0.07834337789869     -0.01807143366951
  C           1.52640406233717     -1.19728166053313      0.71168749681700
  C           1.76020992104299      0.06830308688124     -1.40278006772681
  H           1.97357737245810      0.83274491198591      0.52406519317442
  N           1.51811373634508     -1.15104433173426      2.08305105500857
  C           2.66684757856382     -4.10793813932554     -2.42355108049113
  C           2.39791848990616     -3.01164038526794     -1.74170513424921
  C           1.07636823728854     -2.74441651564335     -1.08427609325911
  O           1.21458040026366     -2.44012596227289      0.29765324315133
  H           3.62096991510392     -4.26030601878398     -2.89704469689550
  H           1.93768948950879     -4.89142815125013     -2.54987971058907
  H           3.13739845900242     -2.23173655179043     -1.62781394846405
  H           0.45054380065360     -3.64058780857544     -1.10833807104681
  H           0.55609562779410     -1.92960068744773     -1.60072132573857
  N           1.78735983560867      0.26393295332255     -2.53752873788410
  H           1.53150867907365     -2.04462260681628      2.54604704370660
  H           2.01565381470974     -0.40350875484993      2.53370626815598
