20
Coordinates from ORCA-job NEB E -53.535716831650
  C          -0.18053616067599      0.66100247692157     -0.65163280412544
  C           0.85500726637037      0.57017044788183      0.31191076992485
  C          -0.06111029736426      0.54980373176396     -2.14523390103685
  H          -0.81317300936532      1.51383049881730     -0.41277759374375
  C           2.12917699575868     -0.25333499038736      0.17214317420938
  C          -1.49801540141285     -0.65013872785808     -0.01346207482562
  C          -1.17782342472974     -0.90296788033908      1.32818941287003
  C          -0.93920521784720      0.19230451929968      2.16187790577866
  O           0.53332771099050      0.88123108901102      1.50359506921036
  F          -1.44533543226663     -1.70220640242866     -0.84055803248166
  H          -2.35157507465451     -0.02867085336377     -0.27074164760728
  H          -0.66496093625507     -1.83272287525276      1.53396927847780
  H          -0.61273855779765      0.00519595435675      3.17431382826446
  H          -1.56719392772520      1.06769331465483      2.05527486806031
  Cl          0.64945548590804     -0.93697382582442     -2.76596660442479
  Cl         -1.69163069020847      0.71694620112131     -2.86778204295795
  Cl          0.89661299533705      1.95178049776802     -2.73737578207571
  Cl          1.71760488204768     -1.98979565483895      0.02770869717700
  Cl          3.11678393124856      0.24087260780256     -1.20543277141375
  Cl          3.10532886264204     -0.05402012910576      1.64198025071995
