20
Coordinates from ORCA-job NEB_product E -53.570621341540
  C           0.94902773170482     -1.10631845845650      0.44936856918815
  C           2.14495897369264     -1.24392949716296      1.40020807126952
  C           1.27486487447257     -0.82705852055353     -1.01967910244538
  H           0.47446335104761     -0.18449084790540      0.81517348874301
  C           3.22383544463220     -2.32986963857605      1.24956913730242
  C          -0.13010639290595     -2.20694577634500      0.67277020671661
  C          -0.15009935093467     -2.62516133789106      2.11683705637024
  C          -0.81922655588979     -1.97940932128291      3.05173880273875
  O           2.25577847491913     -0.46037162028844      2.29782905621477
  F           0.07249539752446     -3.29667067575311     -0.12886990621934
  H          -1.09829843335492     -1.79213464801160      0.36289394181246
  H           0.43409265109939     -3.50594936372028      2.33851114755486
  H          -0.79686295901759     -2.29778700874198      4.07829959195268
  H          -1.41039909841666     -1.10605013310580      2.83148733918282
  Cl          2.02474343574678     -2.15052098407404     -1.90761581839657
  Cl         -0.24090869839885     -0.38884199383847     -1.85763801387510
  Cl          2.35693443732373      0.59751625552177     -1.09029250316790
  Cl          3.97689556955249     -2.57558363611843      2.84320143761433
  Cl          2.71719169049283     -3.89442132798283      0.63242628344901
  Cl          4.43941945670977     -1.60400146571338      0.15948121399465
