33
Coordinates from ORCA-job TS E -49.214125421330
  C          -1.90060953410264     -0.00475728664622     -1.06325823151408
  C          -0.86226083839379     -2.39947042613681      0.17470993230677
  C          -2.18301668849799     -2.19097446936213     -0.03680020981601
  C          -2.71448049934386     -1.08170615608155     -0.71520347454608
  C          -1.30136535542322      0.76894741469578      0.67840262908134
  C          -0.32137860560648     -0.02858735398822      1.24863457975342
  H          -2.89354789292309     -2.86644645004112      0.42204699245067
  H          -3.78525599037378     -0.94656965136894     -0.71492353289809
  C          -2.52289751991142      1.12178476062491     -1.82451613735964
  H          -0.53181060712225     -3.22693445934662      0.78048215192466
  H          -0.90244291216416     -0.21970011030091     -1.42196734807844
  H          -0.10133719095073     -1.89771390072904     -0.39036914576722
  H          -2.25147854077018      0.76391518545338      1.18659241018064
  H          -0.59719541588136     -0.73781771786305      2.01246150330846
  H          -1.02547347190893      1.73275091793731      0.28504617641762
  N           1.00717224093952      0.00073388542083      0.97507063590127
  Cl         -3.89038298531330      1.84997494409416     -0.96310991299318
  Cl         -1.34795512351992      2.41037749728959     -2.18750513328517
  Cl         -3.13210207135833      0.53284351524760     -3.41282875751418
  C           1.60221030778547      0.87526460062225     -0.01725863024443
  C           2.54631204188842      1.88574018588924      0.63934264465301
  C           2.32117918385338      0.08703450373124     -1.11727368392106
  C           1.87318969032107     -0.82424156543155      1.78049291204110
  H           0.78805627718003      1.42620407706761     -0.48981914151545
  H           3.41065179899528      1.39210907626305      1.07636169149960
  H           2.02433834849272      2.43159674522742      1.42165650062752
  H           2.89674918797201      2.59702612846076     -0.10342341387862
  H           3.23476200278868     -0.37599389355777     -0.75266430252687
  H           2.58523191485839      0.76014460993996     -1.92828763777455
  H           1.67560428467465     -0.69162012991916     -1.51650843684375
  H           1.41988728846752     -1.80665780571430      1.92163428618325
  H           2.04796940137606     -0.37921042079856      2.76572321819184
  H           2.83167727397223     -0.95804625067915      1.28705886595564
