24
Coordinates from ORCA-job NEB E -43.625602109150
  C           0.10366433060873      0.29879553490552      0.23304164896202
  C           0.62499071031003     -0.72476704475535      1.18907503037725
  O           1.11957911073982      1.05980635953181     -0.39501388017998
  H          -0.58497324441982      0.97175893238380      0.77196400199159
  N           0.61217155671629     -0.48844905392820      2.54605218559033
  C          -0.66743201529348     -0.41185624770499     -0.94395963906090
  C          -1.11381191330534     -1.75848043844119     -0.59083583915047
  C          -0.26305560354901     -2.64458749994320      0.20459820727215
  O           0.86029201874614     -1.99474494540670      0.77690879108498
  O          -1.73959704658774      0.33554069133568     -1.42536929303363
  H           0.12711824954541     -0.49763720494732     -1.71895709430187
  H          -2.11728497979999     -2.05042798907971     -0.84616736694319
  H           0.15087236485291     -3.46773220440070     -0.39747917940337
  H          -0.85644742161387     -3.11729960119684      1.00854761644809
  C           1.82541604861953      1.92026401356683      0.47703131880707
  H           1.13917039542742      2.54895634171927      1.05128916895884
  H           2.45383392101040      2.53705313129330     -0.16209812048113
  H           2.45018677987467      1.35665841962484      1.17439242228897
  O           0.82340508296627     -1.43003617737418      3.30893649621023
  O           0.38182558685304      0.66895691360359      2.91912669614355
  C          -1.38713407484421      1.49710373189216     -2.15071278604289
  H          -0.83087263870780      2.20633667081431     -1.53429752646862
  H          -2.32701079386712      1.94340150352503     -2.46740289288622
  H          -0.78490642428229      1.24138616298225     -3.02866996618276
