24
Coordinates from ORCA-job NEB_reactant E -43.695712977750
  C           1.32568901763436      0.11888107519806     -0.42694160719108
  C           0.92317577357932     -1.16992505343990     -0.48945153269254
  O           2.11114128399002      0.67552606821149     -1.34461472134454
  H           1.00509082570821      0.71785317600893      0.41945932602035
  N           0.07465401039876     -1.64938151163183      0.56482181051420
  C          -0.10216933488378     -0.65522884821853     -3.43564868637054
  C          -0.51889856857381     -1.82660536698712     -2.96888091741954
  C           0.38114798073616     -2.74539970291300     -2.19348467699828
  O           1.36496856801469     -2.05541323072478     -1.40993049504639
  O          -0.80109285039153      0.27747322572278     -4.11975000959105
  H           0.91461724599257     -0.31883728217093     -3.28154126968864
  H          -1.52598400976518     -2.18280092708823     -3.11447996506071
  H           0.98594994334080     -3.36804949223644     -2.85982833969629
  H          -0.21597095415520     -3.40324456146686     -1.55336576352223
  C           2.49780345913483      2.01653727788897     -1.11289579508699
  H           3.10528914470425      2.30856544018446     -1.96687602206440
  H           3.08840098958912      2.10209939972009     -0.19690779104052
  H           1.62413415383784      2.67004396045132     -1.04376144460117
  O          -0.13437460083949     -2.84468377036980      0.62598129429795
  O          -0.39783725072209     -0.82698320044587      1.33188087021635
  C          -2.14829685845214     -0.00757531205411     -4.41901497747964
  H          -2.52427911016191      0.85442994436152     -4.96688710735735
  H          -2.73575830158835     -0.14580191334496     -3.50596176366714
  H          -2.23430055712744     -0.90337939465529     -5.04142041512981
