24
Coordinates from ORCA-job NEB_product E -43.675256201940
  C           0.74458184894060      0.11257218438502     -1.46980581705857
  C           1.31881421051298     -0.99991110847051     -0.62587382503651
  O           1.75364112197259      0.87353465773902     -2.06655299521882
  H           0.07496950810120      0.73335813189047     -0.85311625373641
  N           0.36035452319086     -1.47878890872690      0.49392980209197
  C          -0.10826655038625     -0.52131730612891     -2.60309816885575
  C          -0.80260651201921     -1.77072271002717     -2.11910516614040
  C          -0.38291158034120     -2.99544004817282     -2.37782291142588
  O           2.37083343320696     -1.53553315984680     -0.69963804829860
  O          -1.02189723543804      0.46938088716813     -3.00806760040404
  H           0.58911869561802     -0.76160371264656     -3.42108779303631
  H          -1.69756796407412     -1.58679106576575     -1.53929852518497
  H           0.50298271377647     -3.17879658699541     -2.96383772085017
  H          -0.89648672993332     -3.86218791281983     -1.99971580448850
  C           2.39349651004562      1.77657500766275     -1.19088506337063
  H           3.08550859859681      2.34720325292816     -1.80566986541203
  H           2.95198266448355      1.25344896270879     -0.40752588869989
  H           1.66867079638477      2.45465725835063     -0.72710958973000
  O           0.52204242711979     -2.60869147007284      0.86612225998756
  O          -0.45540376416662     -0.68568231848192      0.89765282121431
  C          -1.61635353256858      0.20537815105152     -4.25667594704906
  H          -0.86001140505712      0.15016325500755     -5.04808882044295
  H          -2.28909861141081      1.03712527930535     -4.45257267333099
  H          -2.18449316655497     -0.73133072004198     -4.24145640552335
