18
Coordinates from ORCA-job NEB E -25.599333320690
  C           1.12186173927405     -0.12824078497130     -0.63684452979481
  C           0.70027340981671      1.12430917554114     -1.12390624173976
  N           0.61663571896285     -1.32830901299838     -1.17539399334811
  H           2.12997058396941     -0.21581782050506     -0.24872261180241
  H           1.27983157335253      2.00283157758722     -0.79885886680863
  C           0.07671333667457     -0.03496636203542      1.08577814544308
  C          -1.22769260877603      0.04605634641585      0.54682280401653
  C          -1.66942911156214      1.18870160301687     -0.07446245466142
  O          -0.46151251193489      1.28280377514012     -1.58249102974087
  N           0.52571159658477     -1.18402477706419      1.72050882749524
  H           0.51391108426279      0.87464494440551      1.48204882945701
  H          -1.71643243052595     -0.89357251707302      0.32598728862869
  H          -1.33861348085863      2.15470631880438      0.27334411631512
  H          -2.61482836956392      1.18689944696810     -0.59005480193798
  H           1.31953907253025     -1.87493997279989     -1.65281949053801
  H          -0.16737373414898     -1.12710486753907     -1.78700340848611
  H          -0.06265255818194     -1.99372007060404      1.62328628567738
  H           0.97408669012456     -1.08025700228882      2.61278113182507
