18
Coordinates from ORCA-job NEB_reactant E -25.639589079980
  C           1.96734890478002     -0.00958964677342      0.20225289200411
  C           1.04459454671014      0.44979262147536      1.04498321285783
  N           2.64082066024999     -1.22169231034355      0.35213442169424
  H           2.28283769722268      0.59848992125745     -0.63097605842721
  H           0.61561249396354      1.43690205415996      0.93408489814167
  C          -0.25173467510644     -0.67605365636661      5.36430065916960
  C          -0.64992609343791     -0.54235827348786      4.10241363657291
  C          -0.03221203558834      0.41774545424248      3.14034312095024
  O           0.56865348454277     -0.31541309782514      2.08723464684491
  N          -0.86039216990535     -1.48279801900628      6.30649641695941
  H           0.54840811613199     -0.06353962898569      5.75828434606409
  H          -1.44332944039266     -1.15970977929830      3.70708701767779
  H           0.72438210348894      1.03385744360704      3.64816965276653
  H          -0.79972541597370      1.09044588100972      2.72173238862803
  H           2.79012760026578     -1.72359562088149     -0.51168062049283
  H           2.20629922178586     -1.79986553624386      1.05891039327921
  H          -1.46997915525672     -2.19076768168935      5.92441765837199
  H          -0.26428584348059     -1.82275012485047      7.04421131693749
