14
Coordinates from ORCA-job NEB E -25.637802253590
  C          -1.16529144080010     -0.25008593531802     -0.91382577425022
  C          -0.06176914239499     -1.07953548855006     -0.97094282594736
  I          -1.21060994723224      1.39572379183723     -2.25779985076192
  H          -2.14789644778970     -0.68775032374722     -0.80561448182916
  Br         -0.36264107488581     -2.85306732403562     -0.14613584941322
  C          -0.74111745283544      0.57249541591467      0.87961088111378
  C           0.55692735754245      1.00333374497635      0.68981054287542
  C           1.56909127549850      0.02908437234973      0.44215968053410
  O           1.13533219685132     -0.66661818419930     -0.96955864891961
  H          -1.52546214553463      1.30947648918847      0.97654909085699
  H          -0.91875196830777     -0.33879137388933      1.43583477472072
  H           0.72869544142536      2.00894253389503      0.33258748276115
  H           1.58263523675759     -0.83954738397695      1.09769399407399
  H           2.56085811170546      0.39633966555501      0.20963098418533
