20
Coordinates from ORCA-job NEB_product E -49.585911602520
  C           1.06436661141822     -1.16931818957965     -1.54093842984651
  C           2.15861889947159     -2.22639118640489     -1.23316229770656
  C           1.47186221391768      0.27597040145765     -1.25870473276314
  H           0.22070446756903     -1.38510278821598     -0.87311982673787
  C           3.43297924491039     -1.71928009716351     -0.76038628452750
  C           0.59924978965100     -1.38998496319940     -2.99276897623653
  C          -0.40860761028880     -0.40534708015781     -3.50549775513734
  C          -1.70169771372064     -0.66263846954913     -3.55699860923701
  O           1.89735505095112     -3.39704589853037     -1.29140311623144
  N           1.80842589580745     -1.40139163078122     -3.88138397402065
  H           0.19402713690070     -2.41050175288188     -3.05054704855708
  H          -0.01277225566966      0.54361401119269     -3.83701328793665
  H          -2.11296429990375     -1.60618047779262     -3.23695944934389
  H          -2.40173895875585      0.06808618973484     -3.91913132600190
  F           2.36017189076386      0.75740850377232     -2.13033215646105
  F           0.40557643446261      1.09238534008155     -1.31012281177828
  F           1.98243953118513      0.41590413318517     -0.03243575278405
  N           4.44932096834720     -1.36306749634287     -0.37882562697829
  O           2.85120899503721     -1.73036924901483     -3.36092671628717
  O           1.64827370794551     -1.12204929981007     -5.03274182142711
