21
Coordinates from ORCA-job NEB E -37.598230311360
  C          -0.09427864956282     -1.02335318990058      0.44636962777399
  C          -1.23720854058303     -0.66914753224140     -0.28309646537496
  F          -0.26364935739692     -1.23720129309210      1.77361303744809
  H           0.65598186617288     -1.70429173364189      0.06033368866541
  O          -1.25826167853459     -0.72100094765592     -1.64834093196523
  C           0.73208221604711      0.77850195916688      0.50918226170670
  C          -0.27439065655644      1.51168024943819      1.12983675310698
  C          -1.50628667505560      1.64912451208422      0.43066056169408
  O          -2.09661472311222      0.12713248754248      0.24661850168966
  C           2.03856214379336      0.53291308583779      1.21458730871111
  H           0.85499730320074      0.90499942106359     -0.56307561799499
  H          -0.28972878689906      1.55113043134430      2.20883009469025
  H          -1.44359785516889      1.95077956024009     -0.61161454614515
  H          -2.31835465449784      2.12955063353864      0.96038813445133
  C          -0.36917107522715     -1.58564325327394     -2.32021515282366
  H          -0.70900025955702     -1.60840981513119     -3.35436363699138
  H          -0.40378535329171     -2.59559393956930     -1.90326439173167
  H           0.65844562143733     -1.21266254596030     -2.28568354521063
  F           2.82944678823643     -0.31257471545390      0.47147141454158
  H           1.89496792880232      0.06611116020452      2.19354214685261
  H           2.59984439775311      1.46795546545981      1.32422075690590
