21
Coordinates from ORCA-job NEB_product E -37.658467330920
  C           3.75400204818124      1.07795602606100     -0.11616729237570
  C           2.51810656521383      0.65570460520124     -0.91096204457155
  F           3.55735495735907      0.79147461995987      1.21070455804075
  H           4.62446464601419      0.49322090001779     -0.44031507074635
  O           2.77616660416047      0.75181256395489     -2.21731121938201
  C           3.99484208164355      2.58548731001346     -0.30656333308219
  C           2.73244992740180      3.34747984069221     -0.01275543117655
  C           2.11167333963534      4.10683896890212     -0.89382149205181
  O           1.47378053979448      0.30882627941637     -0.44428400855080
  C           5.13498691648550      3.04091789390478      0.60986048220925
  H           4.29356636600678      2.74708260575070     -1.34693539701367
  H           2.34760563114988      3.22265539410813      0.98990026452812
  H           2.48733955399666      4.23829596919148     -1.89574684772560
  H           1.20819387729463      4.63664576901462     -0.64743788300446
  C           1.69153385679386      0.44028974787963     -3.08775394646646
  H           2.07187952037607      0.56126160675500     -4.09827101576196
  H           0.85712197274464      1.11933521937673     -2.90465322081010
  H           1.35616606240124     -0.58475972529429     -2.92173273474276
  F           5.52227975781855      4.31146118118736      0.27378951974633
  H           6.01680427879379      2.40087233206336      0.49628868780610
  H           4.81928149673444      3.06424089184354      1.65706742513142
