21
Coordinates from ORCA-job NEB_reactant E -37.624642980890
  C           1.11172101806436     -0.09506526355124     -0.42687278718063
  C           1.63754177837758      1.08537574561354     -0.76430584829787
  F           0.21720145112038     -0.18283610286426      0.58804366953240
  H           1.30141042374502     -1.04323251618826     -0.89281290634208
  O           2.54277601769219      1.27735876092298     -1.76050529084374
  C           4.45248287661380      3.72130025631732     -0.68268122937857
  C           3.42904782260624      3.30651452058458      0.04311715523651
  C           1.99800214152523      3.39777357589692     -0.38980702223042
  O           1.27086613005900      2.20982277539414     -0.11429976977496
  C           5.88315337288359      3.64575459296828     -0.25653865157352
  H           4.30870532124281      4.16287587762720     -1.65902911739855
  H           3.58768935184954      2.85841911469011      1.01438899944764
  H           1.92984071436489      3.65293487966793     -1.45345365235895
  H           1.47584062540592      4.15821754438734      0.19997675363902
  C           3.01274053081102      0.14675869288633     -2.45471114312342
  H           3.74389222425207      0.52589929484557     -3.16652373195681
  H           2.20315878678794     -0.35462613870038     -2.99235685109410
  H           3.49358243870982     -0.56217209171502     -1.77539977842352
  F           6.02923193826338      3.05971162311693      0.97380924936042
  H           6.32362374312612      4.64869422742405     -0.18399489438615
  H           6.46989129249910      3.04612063067591     -0.96434315285271
