20
Coordinates from ORCA-job NEB E -50.057231683930
  C           0.81353560137203      0.49604790924450     -0.24699147849522
  C          -0.40751909278746      0.88820337747328      0.33660714762107
  C           1.08995650122333      0.84575069730920     -1.67791332915220
  H           1.69930181478398      0.70846796918237      0.35549232726169
  C          -0.38868360851090      1.39357480298230      1.75784721532895
  C           0.62990465329329     -1.48871249621309     -0.26375842402223
  C          -0.59760881146838     -1.79218434845028      0.32327423691843
  C          -1.75109466921229     -1.19688891113193     -0.24033952846818
  O          -1.53067859884796      0.47249771314092     -0.11407091382395
  Br          2.21934548883492     -2.15038720524430      0.56325800567362
  H           0.69676246385133     -1.56515977829969     -1.34333597889104
  H          -0.61646267528056     -2.09033834852871      1.36272435085319
  H          -2.68398100238839     -1.33389060171373      0.29327869144117
  H          -1.86611214464882     -1.24489576406802     -1.31759842226977
  Br          1.43088479587981      2.80017312975962     -1.75230562470286
  Br          2.71705790492791     -0.02906989615249     -2.33995560805169
  Br         -0.35175727765300      0.47592948587532     -2.92128629625021
  Br          0.68791772805288      3.01605174419756      1.89782239091240
  Br         -2.19347476618119      1.75348593101795      2.34374090171028
  Br          0.40270569475947      0.04134458961922      2.98351033640654
