20
Coordinates from ORCA-job NEB E -37.201398590850
  C           0.13596991331603      0.88350569827754     -0.23271988810624
  C          -0.19150194726906     -0.25544104491183     -1.00653311053474
  C           1.50093923703178      1.49234107760107     -0.24241333941684
  H          -0.62822673909739      1.65254378177426     -0.27159651759494
  C           0.82916788703279     -1.20375861855610     -1.55886962818875
  C          -0.28991902125474      0.34786095844507      1.57701399470023
  C          -1.07386136855928     -0.80708107067610      1.48039120631972
  C          -2.14513178232597     -0.74489509003829      0.55658848125727
  O          -1.40550907816795     -0.68318083608368     -0.93073769961759
  H           0.66078729378758      0.25487192887183      2.08459229565159
  H          -0.80468430392003      1.26620686199032      1.82262666322178
  H          -0.58025320324849     -1.76553578190952      1.58476578181840
  H          -2.72443803240043      0.17368536484014      0.54840773424864
  H          -2.75634745476838     -1.62788951823458      0.42041960659098
  Cl          1.94523896144037      2.04428585876408     -1.89828847510345
  Cl          1.53049941276530      2.93255990801172      0.80943371234618
  Cl          2.77099351620569      0.39306141838943      0.32247135108998
  H           1.28117351882963     -1.77018364612629     -0.74299444150168
  H           1.61317622267956     -0.67989039531026     -2.09613520167805
  H           0.33192696792301     -1.90306685511879     -2.22642252550249
