20
Coordinates from ORCA-job NEB_product E -37.254982468160
  C           0.93300180775728     -1.07708638967501      0.26685976011786
  C           1.71947437788950     -2.03490391147189     -0.65059920402228
  C           1.49349832670781      0.33900259351280      0.26566478072900
  H          -0.07183665459778     -1.01548443347718     -0.16976968418020
  C           3.17311776766143     -2.24288780973826     -0.35471840243375
  C           0.79769347489889     -1.64089077151335      1.69374484863264
  C           0.14117406942459     -2.98761107772473      1.67141785485470
  C          -1.02527096356247     -3.24572053596134      2.23009172343837
  O           1.14811356927014     -2.58925045334671     -1.55026383449584
  H           1.78539953490415     -1.71922513102598      2.15251438619951
  H           0.19961854156340     -0.94845428495772      2.28840588426703
  H           0.68358736682705     -3.76399576899838      1.14906196374277
  H          -1.58557079409546     -2.48600331272424      2.75021111945624
  H          -1.46733842321674     -4.22610679118119      2.19677936685490
  Cl          1.85231537714093      0.85216753799720     -1.40832934593493
  Cl          0.28646182584643      1.47089679023191      0.93833911780350
  Cl          2.97254007967425      0.51787211262231      1.22902379951483
  H           3.53686469441829     -3.09446981626873     -0.92446474951675
  H           3.34695457439911     -2.40132135028032      0.70517462914205
  H           3.73000144708919     -1.35852719601918     -0.65804401416964
