20
Coordinates from ORCA-job NEB_reactant E -37.241179880770
  C           1.39432847614658      0.13054489815177     -0.14853870713013
  C           1.10216992050159     -1.12844739266765      0.22209117137275
  C           2.67720556595296      0.61087204593626     -0.68703740171492
  H           0.61704561926819      0.87233237477679     -0.05503145588654
  C           2.04414159632959     -2.28459491211116      0.15937330374711
  C           0.34959668053758     -4.06674635468842      2.96338537920586
  C           0.02636924504024     -2.86118772338655      2.53537464470350
  C          -0.56269277271464     -2.57398569173517      1.18352578104388
  O          -0.16553726346713     -1.31990579956841      0.65531401703975
  H           0.74120122961025     -4.23162195554301      3.95180267666336
  H           0.22568086937854     -4.94114804536804      2.34518920117740
  H           0.15389792487428     -1.98846999756044      3.16129054130788
  H          -1.65034991749469     -2.47627896106599      1.28291519898878
  H          -0.35389396983545     -3.39000046778080      0.48223620087390
  Cl          3.15368408983401     -0.24477472319721     -2.19512478908376
  Cl          2.58118072738076      2.33769336470348     -1.07152250275625
  Cl          4.03205065406392      0.40230544431006      0.48150534095505
  H           2.10396929278468     -2.77583969399725      1.12953142968449
  H           3.03509679363119     -1.95990813873947     -0.13189456893532
  H           1.68995523817753     -3.01183827046881     -0.57148546125681
