20
Coordinates from ORCA-job NEB_reactant E -37.781537760100
  C           1.45046130882645      0.28004893268598      0.04515341708300
  C           1.47243601480226      1.19705797243877     -0.91676259409882
  F           1.98264408492156      0.43612754909729      1.27914311660105
  H           0.99545674094865     -0.68737231836650     -0.08192736919813
  C           0.84257114803346      0.90513524293254     -2.25818292660806
  C           3.00294236065359      5.00452515381561     -1.09594911209397
  C           3.13561962903907      4.31733254858501      0.02485381862199
  C           2.63521978451166      2.92598804294316      0.24425698821373
  O           1.99407420295303      2.44822056430565     -0.92888614800486
  C           3.50994028645015      6.39572860692184     -1.29779023999746
  H           2.50366211762713      4.58208838654010     -1.95468795127365
  H           3.63677251952569      4.74694673851577      0.88045976910375
  H           1.93263034505596      2.92221930130617      1.08892290025549
  H           3.47957710289896      2.27443921657082      0.50796632266416
  F           0.30026748438497     -0.34593907091545     -2.31174471601025
  H           1.59703334546743      0.97085690162384     -3.05035846437488
  H           0.03783235557585      1.62129692276141     -2.45985956840045
  F           4.13424502430026      6.88876496448038     -0.18038204047438
  H           2.68583193507397      7.08281031128207     -1.52858786105498
  H           4.24538220894989      6.42982403247555     -2.11173734095325
