19
Coordinates from ORCA-job P E -29.541314085400
  C          -1.41014441260884      0.44653167577639     -2.28928775599532
  C          -0.08965621303171     -1.65182136190856     -1.15402330805687
  C          -1.47058029138882     -1.88591220915988     -1.67668261979365
  C          -2.11568927232710     -0.86958489356469     -2.22599849779286
  C          -0.80249585409944      0.80096095888095     -0.92409228085591
  C          -0.05627612619783     -0.38189105319360     -0.28077588909459
  H          -1.90637601190773     -2.86799331359427     -1.59199736103358
  H          -3.11570282814962     -0.92309057282980     -2.62203634258810
  F          -2.27783665126914      1.45297284127078     -2.66368483462181
  H           0.26520985487257     -2.49988729101546     -0.56959079143539
  H          -0.62857570474049      0.42719340173789     -3.06421378190688
  H           0.59538369470429     -1.51627479981997     -1.99770404648856
  H          -1.62888314243543      1.11387129053930     -0.28437024560342
  H          -0.53392444372959     -0.62862687820578      0.67231790172010
  H          -0.13716062553498      1.65742169187054     -1.04615605101608
  C           1.38941002984707      0.00740692135049      0.02120916293367
  F           2.02911105322866     -1.00607536159920      0.69243037874975
  H           1.43955580383917      0.88887932534028      0.66889829543943
  H           1.95921114092896      0.18378962812458     -0.89760193255993
