33
Coordinates from ORCA-job R E -37.100743745790
  C          -1.87373059968730     -0.51617015140431     -2.95408765984612
  C          -0.13539096572587     -2.87440492887256     -2.15916181669964
  C          -1.05872691390887     -2.27845993793963     -1.41176933481093
  C          -1.76869233861438     -1.05512888147560     -1.74088665807122
  C          -0.99617610619868      2.34633534706257     -0.32002412709895
  C          -0.36013244776735      1.40015175462828      0.36755680554368
  H          -1.31421043548406     -2.70985548727216     -0.45105424184473
  H          -2.25226516831248     -0.56011670835889     -0.90836070094366
  C          -2.60336685431214      0.74812222474363     -3.24749183186072
  H           0.34844906358290     -3.78266204151265     -1.84196257173601
  H          -1.42499800771106     -1.00542941585320     -3.80857375125823
  H           0.17808450892046     -2.47600835301929     -3.10906909798734
  H          -1.99073215279787      2.63596136640262     -0.03364843900998
  H          -0.88275631292457      0.92059088095906      1.18690110321991
  H          -0.57529036036994      2.87247724443033     -1.15680427241295
  N           0.93419509449071      0.95685985280221      0.24442151064090
  H          -3.44226858398619      0.55440387909582     -3.91692450411229
  H          -1.94316741562643      1.45608833588462     -3.74878301984207
  H          -2.97604938345340      1.20370462380018     -2.33374450499928
  C           1.76089597244733      1.44904049196090     -0.84248562598340
  C           3.24015350404178      1.47483279896857     -0.45290882332972
  C           1.55394656653657      0.66188311145232     -2.14088120151388
  C           1.23332842661454     -0.35438490359506      0.76888874205811
  H           1.44889105033084      2.48498934188930     -1.00525564909110
  H           3.66954594491216      0.47601175991015     -0.45047802497665
  H           3.36340328773999      1.91756139814205      0.53249407865408
  H           3.79220639439353      2.07470992361197     -1.17214737502171
  H           1.94727583330748     -0.34739759149241     -2.04302878881403
  H           2.06656858923669      1.15370903245485     -2.96365338014818
  H           0.49311280303168      0.59698187843356     -2.36998621850809
  H           0.63864965470399     -0.52638956859272      1.66508041367814
  H           2.28474211697410     -0.41455241150750      1.04580075589618
  H           1.01000523561584     -1.15353486573701      0.05083821022990
