33
Coordinates from ORCA-job TS E -37.081174366080
  C          -1.97868463321595      0.04014974848363     -1.09035311701531
  C          -0.82939764731520     -2.32343126363521      0.15799647106480
  C          -2.16009393073843     -2.13957277022878     -0.00131433961527
  C          -2.73439321432615     -1.04177965946560     -0.66684751442561
  C          -1.27293226184266      0.83047800008338      0.62308465821330
  C          -0.32191236855801      0.02219341018817      1.21501944898636
  H          -2.83861866087298     -2.81513299465987      0.50669353570446
  H          -3.80745437585477     -0.92154293920267     -0.60000651983024
  C          -2.67727806478619      1.17926251345044     -1.78513710567359
  H          -0.45538484785561     -3.13573070089680      0.76036901326783
  H          -0.98788919909776     -0.15731948951239     -1.48019831224778
  H          -0.10359526919420     -1.81915993733337     -0.44954209308713
  H          -2.21437919028054      0.90194102936275      1.14152531631261
  H          -0.61183376041220     -0.63819755969303      2.01566825654942
  H          -0.96115719326307      1.75181255659647      0.16000529046180
  N           1.01846280387794      0.00575170131087      0.94521999825694
  H          -2.93936630444566      0.88130313384392     -2.80121393659738
  H          -2.04451321169417      2.06207676355270     -1.85200960745670
  H          -3.59393907292519      1.44731298779448     -1.26450204798849
  C           1.62743425733432      0.80563030918150     -0.09499025922942
  C           2.55578421708428      1.87312662873907      0.49398825348028
  C           2.37377681796102     -0.06081154288998     -1.11665317720024
  C           1.86143900361481     -0.75706311291536      1.82969121098816
  H           0.81605579773945      1.30928939040917     -0.62280988390317
  H           3.41940083548338      1.41841399924891      0.97281961020936
  H           2.02150283190102      2.46594658826739      1.23286772506564
  H           2.90930287805107      2.53434439124541     -0.29295049555131
  H           3.26261112559989     -0.50898662071505     -0.68241775900125
  H           2.68190690144207      0.55087214669204     -1.96055609634728
  H           1.73659972056125     -0.86235353793855     -1.48225980660030
  H           1.40177963126155     -1.72644264444019      2.03033046521915
  H           2.01474787646555     -0.24312700370932      2.78603556101771
  H           2.83201850830114     -0.92925352121416      1.37244725697266
