21
Coordinates from ORCA-job NEB E -43.892999868720
  C           0.39805847186673     -0.38839661860238      0.38784060502072
  C           0.42356557658284     -1.29437114728108     -0.71889698453093
  O           1.43004272137380      0.48568950981645      0.51027068426495
  H           0.03693410967945     -0.79899897127653      1.33374717731699
  C           0.06680048843231     -2.64539708761722     -0.61311338909512
  C          -1.16404536914853      1.85848703098454      0.18243342706585
  C          -0.96220534747204      0.65226491797144     -0.44683688760915
  C          -0.20284584287907      0.61441052782552     -1.76890723737610
  O           0.28266825805508     -0.70660063348695     -1.93360290431573
  Cl         -2.35801030325845      2.06848597680636      1.37505691259285
  H          -0.54529911084718      2.72299143461386     -0.00747649378404
  H          -1.77586808775408     -0.06929647026229     -0.37788742516579
  H           0.63432354560328      1.32160761170402     -1.73933589607434
  H          -0.84406745982506      0.82994064878976     -2.62627076850367
  C           1.50999296563426      1.16842450533357      1.74110165376273
  H           0.64892582525614      1.83083269396719      1.87553170758612
  H           2.42413962151658      1.75658134354052      1.70182328156142
  H           1.55571781794072      0.46397803914524      2.57685700892198
  Br          0.68835786119834     -3.59335753558507      0.90033712360282
  Br         -2.39200689131056     -2.63730737914501     -0.14041457596539
  Br          0.14482114935545     -3.63996839724193     -2.21225701927615
