21
Coordinates from ORCA-job NEB_reactant E -43.931941225370
  C           1.12291361933082      0.17007325217820     -0.43096163722567
  C           0.87436454748256     -0.20803740793092     -1.68953041852349
  O           0.42082538177278      1.11639393193290      0.24014710264808
  H           1.92445764458814     -0.30333898942393      0.12323897225682
  C           1.59216079049317     -1.31641965317112     -2.37050093510294
  C           1.19306846171888      2.82320125465352     -2.52064280681650
  C          -0.02954353652121      2.65058088243062     -2.04906258757323
  C          -0.82907643754784      1.39373337482836     -2.22864028496679
  O          -0.06465660349403      0.25819043061555     -2.57232897722586
  Cl          2.08856932151490      4.26605669561109     -2.25583841453974
  H           1.72604080854205      2.09248459053627     -3.10923010189803
  H          -0.52023695721416      3.42560154214219     -1.48080056154369
  H          -1.52504421944272      1.50666983027609     -3.06753036210734
  H          -1.40614718628027      1.19837158130255     -1.31799675440117
  C           1.08878820044050      1.68380398615384      1.34759972821641
  H           0.35189782039654      2.29487472433866      1.86419424742379
  H           1.92100222073733      2.31359125280485      1.01960896819851
  H           1.46400029546906      0.90924851997597      2.02306997009145
  Br          3.04911428641419     -2.09628152364099     -1.38767443177197
  Br          0.31070981089737     -2.75022206868747     -2.79089376201498
  Br          2.30119173070196     -0.66307620692622     -4.07402695312365
