23
Coordinates from ORCA-job NEB E -43.672674598290
  C           0.31913092479172     -0.73094016059102     -0.44043066521014
  C          -0.68891799264042     -0.58584280628944      0.62748869607810
  C          -0.20187529703556     -0.22215677723658     -1.80816143786449
  H           0.56511283964046     -1.78982073813323     -0.56361253533041
  C          -1.35122383407421     -1.78932454576243      1.20350331858090
  C           1.61344793951356      0.08250673790162     -0.08524381974093
  C           1.34624299604211      1.30866092005577      0.58382931036865
  C           0.37120641964161      1.32983314353902      1.63732425510081
  O          -0.87576809400302      0.52785830019031      1.27059269787925
  I           2.92933855430123     -1.34978782515366      1.13549766997077
  H           2.23524520494336      0.20083486554738     -0.96808848559439
  H           1.77555393194611      2.22778491698994      0.22543715903521
  H           0.65942285139144      0.78811682411801      2.54297503853000
  H           0.00972420795458      2.32263880068458      1.89616956133048
  C          -0.77796672045767      1.18271516015115     -1.76223417012210
  H          -0.97085572474544     -0.92190920613960     -2.13908436216609
  H           0.61952989806873     -0.26535511159477     -2.52612204056581
  H          -1.68606553095890      1.20937751623560     -1.16521535407902
  H          -1.01548077683136      1.51794226300290     -2.76854380891277
  H          -0.06125069986779      1.87829180225283     -1.32863331719895
  Cl         -2.83069754327389     -1.34307259488977      2.06651412373695
  Cl         -1.74437180019375     -2.97927640163297     -0.04287530628729
  Cl         -0.23948175415290     -2.59907508324565      2.40891347246128
