23
Coordinates from ORCA-job NEB_reactant E -43.703082490320
  C           1.61869491975820      0.39513483292410      0.47683630980318
  C           1.95502561869516      0.41491553436475      1.76443761081841
  C           1.72466560615465      1.55754898793913     -0.45300907433741
  H           1.21106810815391     -0.51500740105264      0.06216782301832
  C           1.74849744147285     -0.81328948385312      2.63134536432755
  C           5.38559158691181      0.92959573287480      3.95344672023367
  C           4.71752816398709      0.74274686941599      2.83256175823597
  C           3.83489293398417      1.79717195501016      2.23120993699999
  O           2.44739619508249      1.51647756916485      2.41197256465044
  I           6.59705931989783     -0.54672528754172      4.82347703802014
  H           5.36951091858681      1.85285255313837      4.50784787032902
  H           4.74857799778381     -0.20355841704797      2.31130637486899
  H           4.06131436114347      1.89566005904225      1.16138507581618
  H           3.98104576022445      2.75868991598946      2.72790494340848
  C           0.45282140190335      1.70086094615425     -1.28608216418292
  H           2.57369500047397      1.39942960961207     -1.12588741943070
  H           1.89980391487083      2.47118775899584      0.11702955663509
  H           0.27994717420321      0.80544042005707     -1.87816784217896
  H           0.53942890798347      2.54966497068350     -1.95943223963294
  H          -0.40603029807063      1.85841322043734     -0.63873524431010
  Cl          2.11737630102549     -0.49344630779217      4.32808035942303
  Cl          0.06160174032244     -1.37581854196238      2.51858126422515
  Cl          2.79528692545115     -2.15174549655391      2.06372341325942
