23
Coordinates from ORCA-job NEB_product E -43.710344287640
  C           2.43079872808963      0.64887442123696      1.09138525733039
  C           1.37007031736275      0.13247682150836      2.02434177871588
  C           1.75006311225387      1.49320928280097     -0.01597906572677
  H           2.90088083176398     -0.20519406599210      0.58916797324998
  C           1.06448961886949     -1.38079247638842      1.90053044161820
  C           3.57865189311716      1.38949458491877      1.79915976454525
  C           4.56237576185847      0.43565542305507      2.38532999935894
  C           5.83478946899780      0.39651485750877      2.03496742795022
  O           0.74453974695111      0.79704811012466      2.79502227476802
  I           2.99879518684967      2.74433147577560      3.40666300852065
  H           4.06921732801773      2.03586644366993      1.06950435149074
  H           4.17489552753285     -0.23104277528822      3.14285952976217
  H           6.52209019480548     -0.30063911012332      2.48069893750250
  H           6.24143969747867      1.06134415570375      1.29003934968387
  C           1.07530905507516      2.77692975675881      0.44445263765467
  H           1.01092670442663      0.85559450199621     -0.50497026251869
  H           2.51771251800575      1.72992815554100     -0.75699278555739
  H           0.41041630090067      2.59310166903649      1.28437200307022
  H           0.48418838117591      3.18288570514099     -0.37333139841857
  H           1.80261106747895      3.52970541575181      0.73482917520722
  Cl          2.52286833534923     -2.31804707086175      2.29671805627624
  Cl         -0.24260201568811     -1.83842264024329      2.99819457562508
  Cl          0.58427223932717     -1.75012264163104      0.22833696989120
