23
Coordinates from ORCA-job NEB E -32.471132502390
  C          -0.09947041705878     -1.28515723162136     -0.00310837834403
  C          -1.49815181995075     -1.16999595708738      0.06817375333454
  F           0.57819630422588     -1.53352763817919      1.14589324412334
  H           0.34402004026311     -1.86534180335743     -0.80947983570000
  C          -2.30449271013195     -1.32915350741769     -1.19323652475706
  C           0.37722750329698      0.52632091654587     -0.32736013590192
  C          -0.17293674057976      1.14536350910369      0.80278190745361
  C          -1.58538108091178      1.09734384438942      0.96324260871595
  O          -1.99704190715200     -0.47325112960613      1.05092682018156
  C           1.86831408442187      0.56024500109958     -0.60367349368667
  H          -0.18967614731856      0.64421212796775     -1.25086676085419
  H           0.42958384840556      1.23089433478692      1.69288804077212
  H          -2.17844733253581      1.40239213185857      0.10274420197390
  H          -1.97963945575880      1.48587648622087      1.89410189018216
  H          -2.41658481935091     -0.36315825059698     -1.69384325845945
  H          -3.30062788904680     -1.68455710428527     -0.94100139084802
  H          -1.83284002333762     -2.02853953787540     -1.87611744143564
  C           2.76693728176008      0.61418307613268      0.62604048454248
  H           2.05640578436661      1.44628590918976     -1.21893908233115
  H           2.13843621795420     -0.30766930246873     -1.21010827222619
  H           2.63562551602394      1.55163143147567      1.16016855445935
  H           3.80797578763173      0.54331241282030      0.31860756932551
  H           2.55256797478355     -0.20770971909551      1.30216549947980
