23
Coordinates from ORCA-job NEB_reactant E -32.505772184080
  C           2.22789618040330      0.12734404331384     -0.63265143425980
  C           1.47957594495358      1.01748305876927     -1.27736749895446
  F           2.98000571258865      0.37143967673572      0.47168124176949
  H           2.31114182524915     -0.90057280937291     -0.94287239905656
  C           0.69701860020915      0.59711624743753     -2.48900135513200
  C           4.03431489640821      2.97967051135216     -1.36658568831641
  C           3.44941604987803      3.12044488857661     -0.18997131231985
  C           1.97727683450880      2.94558381530285      0.05510451709462
  O           1.27138588731042      2.33082220834610     -1.00640027561786
  C           5.49370610317142      3.13026995059346     -1.66431533893297
  H           3.43191003621330      2.72635221002257     -2.23095297765263
  H           4.00785341739937      3.37370916499581      0.69760902609553
  H           1.50190112099104      3.92871114797631      0.15982309198460
  H           1.82133925465410      2.39519505577827      0.99123385662857
  H           1.03840162893676      1.15705204559743     -3.35762491203213
  H          -0.35507783368866      0.82967853464982     -2.33860703707992
  H           0.81043492168058     -0.46467637004670     -2.67796240519477
  C           6.36406505016963      3.47221785884494     -0.46295164353614
  H           5.60626646916833      3.90550144062589     -2.42974435013810
  H           5.84547434144701      2.19435799067331     -2.11102782703341
  H           6.06292446016746      4.42202454624707     -0.02732496500557
  H           7.40517105941750      3.55046884385548     -0.76865789798409
  H           6.28639803876286      2.69800593972515      0.29636758467389
