23
Coordinates from ORCA-job NEB_product E -32.513264450480
  C           3.31881450751103      0.95490406692810     -1.12634415898602
  C           1.82408417255779      0.63522989080817     -1.06338314438399
  F           3.93654143944758      0.43632538815607     -0.01235044085441
  H           3.78633927738237      0.46630527986241     -1.99133657947245
  C           1.17598758571887      0.47216037126162     -2.41403220006606
  C           3.50056832076008      2.48619166396017     -1.20215475986635
  C           3.04731349472926      3.11970697518074      0.08147759024770
  C           2.24185037422992      4.16219775859402      0.13821071122893
  O           1.23326555336848      0.53001372892705     -0.02467673896299
  C           4.94389643565071      2.88875635060118     -1.56430136076455
  H           2.85719918702018      2.83749585192270     -2.01781208374229
  H           3.42270771944995      2.65989095560071      0.98341260499578
  H           1.84696629740144      4.62796819284044     -0.75100174923516
  H           1.94251257272593      4.59731426447443      1.07561672940309
  H           1.56793159499030      1.18784621404250     -3.13139208499343
  H           0.09854437044582      0.57825960766299     -2.32355322972427
  H           1.39608814401689     -0.53066708264161     -2.77830171958870
  C           5.97708307374501      2.61980807611769     -0.47717158918405
  H           4.93669841628393      3.95830075860184     -1.78788797228127
  H           5.23129961389802      2.36122987180689     -2.47811108188718
  H           5.75541599591413      3.20107914948564      0.41363205538693
  H           6.96430896290531      2.90549344442009     -0.83408091760746
  H           6.00278288984701      1.56868922138617     -0.20715787966179
