22
Coordinates from ORCA-job NEB_product E -43.503557811020
  C           1.31257872971823     -0.85942296527341      1.80040973000460
  C           2.69456706000571     -1.16927896199247      2.42641199719902
  C           1.22895961081585     -1.14030838392722      0.30966919024403
  H           1.23700005224130      0.23538177491278      1.87178614633153
  N           3.30916013638130     -2.29699372791667      2.03338480273721
  C           0.19661768248563     -1.42431970524360      2.73656507330920
  C          -1.13241982783236     -1.64800291438019      2.06872428715958
  C          -2.20232098539973     -0.91883961686559      2.32381341341251
  O           3.16382185690415     -0.40089083471714      3.23194714723978
  C           0.59617255963956     -2.69344810274061      3.50227408112535
  H           0.06338811325170     -0.66591508828567      3.51643642212155
  H          -1.19586639668897     -2.49794247077427      1.40387916604614
  H          -2.17197409909419     -0.07757971982178      2.99683408518118
  H          -3.14787168016076     -1.12291491580474      1.85365613441764
  Br         -0.24911910257911     -0.13540486858436     -0.51120778727621
  Br          2.86589226936453     -0.46031941502462     -0.55263629020089
  Br          1.02496564236455     -2.99011104161942     -0.25378343716716
  H           4.19895536031468     -2.50692474057206      2.45705832663960
  H           2.86587472340803     -3.02337098737943      1.49534966503201
  F           0.91892850526877     -3.73328256690725      2.66720981599046
  H          -0.24915278780123     -3.02993475832822      4.11045911799714
  H           1.46584257739236     -2.51857598875408      4.14295891245572
