22
Coordinates from ORCA-job NEB_reactant E -43.492232182350
  C           1.37090623833181     -0.41524564175831      0.15017759098456
  C           1.98861688835334     -1.35252613638589      0.91964874055256
  C           1.94206069305611      0.10031107414893     -1.07504523273266
  H           0.42961287746995      0.00558563544221      0.45631378171360
  N           3.19029042200463     -1.90826535773765      0.62295135525154
  C          -0.76379438740045     -2.01827416360367      4.69239750509546
  C          -0.22353111350834     -2.46257664710698      3.57099871966795
  C           0.12897509919718     -1.59154917220658      2.40742516838150
  O           1.46705550147539     -1.89049175712162      2.03587478764928
  C          -1.13990971489428     -2.88592188027717      5.84927900821392
  H          -0.98556335045892     -0.97032139270191      4.83990405673941
  H          -0.00189335709873     -3.51195630726281      3.44339806298705
  H           0.03587940381053     -0.53126728697723      2.67388185488499
  H          -0.54201391988156     -1.80996416186770      1.56406875202610
  Br          0.76697128509849      1.36100428097644     -1.95208211629263
  Br          3.71931771528378      1.10521647738963     -0.76321369499870
  Br          2.40699312884923     -1.31006831596038     -2.40388245543880
  H           3.55952415081868     -2.53379640040234      1.32010769496353
  H           3.86490532336622     -1.38743790132958      0.08686935473316
  F          -0.85691408119440     -4.20586546556084      5.61878761478154
  H          -2.21670661142529     -2.82154846777247      6.05126525352605
  H          -0.58648219125337     -2.59394101192409      6.75077419731061
