20
Coordinates from ORCA-job NEB E -33.179660829260
  C          -0.63616703232463      1.46387708494523     -0.58357379183206
  C          -1.84799053791094      0.97968041951405     -1.07249987966161
  Cl          0.68271204553727      1.54456619238625     -1.71050792912816
  H          -0.64469514661583      2.31593000946840      0.08482682568106
  Cl         -3.24488717063677      1.40605366182261     -0.05077666171785
  C          -0.17100012548096     -0.09090885313504      0.59929764140576
  C          -0.25448250104696     -1.13184461707860     -0.32047447961655
  C          -1.50929855481753     -1.44944847348126     -0.88579800431989
  O          -1.94436978309902     -0.06473072947782     -1.76942962284089
  C           1.11676378568592      0.27681501667554      1.29954611387013
  H          -1.04079278429075      0.05956875364003      1.23450651218404
  H           0.63140227463261     -1.42776721839489     -0.86031789830105
  H          -2.36686199576144     -1.47626121586465     -0.22107203377408
  H          -1.53711306553020     -2.20229708236956     -1.66135410968178
  C           2.39174993070367     -0.26519495929469      0.66525686652640
  H           1.03911059648029     -0.11128168840256      2.32028456293957
  H           1.19090725479492      1.36262273726452      1.38349698205397
  H           2.39378005745950     -1.35230338269857      0.67145602049244
  H           3.25205888094251      0.07895927396920      1.23431731118371
  H           2.49917387127831      0.08396507051178     -0.35718442546316
