20
Coordinates from ORCA-job NEB_reactant E -32.267498236000
  C           2.10118280386295     -0.71635477488289      0.37403585652603
  C           1.28658407165214     -1.71381612411644      0.04795835540787
  Br          3.40449539543928      0.11089571476923     -0.72362479724292
  H           2.05364416919075     -0.27773733172070      1.35528155334895
  Br          0.06741469310237     -2.28362386848863      1.41157842276623
  C           3.65434074124153     -3.65862455061616     -0.65215728166668
  C           3.37375948178080     -2.94171674668791     -1.72784610441395
  C           1.99329572808953     -2.48983731871120     -2.10875141164338
  O           1.06972099170064     -2.46722001071386     -1.02402263183330
  C           5.01131937365364     -4.11033522838245     -0.21593848250462
  H           2.85456353134645     -3.96967497730703      0.01083359152341
  H           4.14167675454261     -2.62277782412894     -2.41444810277187
  H           1.53973527060649     -3.19637675158946     -2.81286380579210
  H           2.03077046363015     -1.50690051574546     -2.59146485557473
  C           6.15989151014419     -3.64679207275058     -1.10088318236541
  H           5.00262294005501     -5.20396013909586     -0.16645057622082
  H           5.17277460408854     -3.75281093579238      0.80634140757395
  H           6.05175023769378     -4.03728340951240     -2.10986046686360
  H           7.10440432732658     -4.00278026735147     -0.69662677044642
  H           6.19465291085258     -2.56087286717541     -1.14649071780666
