20
Coordinates from ORCA-job NEB_product E -32.285238207740
  C           3.19363518761714     -1.73269475024214      0.22498959166736
  C           1.74400827446950     -1.40062282677019      0.30020623789378
  Br          4.08534899015904     -0.18979541657094     -0.58639098951132
  H           3.61317257387253     -1.84577501224352      1.22729699098120
  Br          0.85807925957452     -2.50374907060646      1.69088818722828
  C           3.36960269694837     -3.04641429795253     -0.57435198081445
  C           3.19716770291471     -2.80647747445211     -2.04675367438149
  C           2.10439823925362     -3.12667063514716     -2.71277534250842
  O           1.09367766678396     -0.65552103307787     -0.33473782368652
  C           4.68522875891924     -3.76929302661788     -0.23747938591394
  H           2.56040135770099     -3.71125453310331     -0.24317243665379
  H           4.02705580343281     -2.33298013352020     -2.55058868545405
  H           1.25866771637214     -3.59635528489138     -2.23547844285829
  H           2.00738030165313     -2.93416312317878     -3.76680755972012
  C           5.96560267524982     -2.97258347878698     -0.45416460065350
  H           4.71419148201906     -4.66759383993884     -0.85868664358958
  H           4.64028347162357     -4.09404850420004      0.80536749365028
  H           6.02783272244644     -2.58255847785057     -1.46605002052225
  H           6.82179491487619     -3.62308758169934     -0.29170098509790
  H           6.04447020411321     -2.14136149914973      0.24129006994475
