20
Coordinates from ORCA-job NEB_product E -51.252274503310
  C           3.01085981683210      1.78758677870465      0.01980156060024
  C           1.73607463464130      1.78888883584367     -0.76839361023294
  I           2.85947380985967     -0.11207154533330      1.05357450975798
  H           3.89304131843971      1.71139316867373     -0.61708799367286
  C           1.86047827439135      1.34989416598592     -2.22327591172907
  C           3.10691447728522      3.01745725586055      0.93469539027049
  C           2.39578514140846      2.84628458448090      2.25090688181710
  C           1.21075220358180      3.36339347250097      2.50974601139918
  O           0.67676479683652      2.17050019388660     -0.36277354483949
  C           4.56856773517849      3.41028435331670      1.16111789176569
  H           2.63816638531531      3.85045259393164      0.39404087332465
  H           2.92346481502741      2.25674238482216      2.98701067166607
  H           0.67058212328631      3.95235457709776      1.78765198685753
  H           0.72620806970264      3.19913330740418      3.45591927218865
  Br          0.11714593100996      0.98586172857172     -2.96113443263047
  Br          2.60628102538438      2.98098368022910     -3.05881400466229
  Br          3.05054964455086     -0.12378164804655     -2.57340693013137
  Cl          4.63326507266594      4.83940295881391      2.21761821650516
  Cl          5.49525739154514      2.09841997931288      1.91214697603035
  Cl          5.34846733305744      3.83251917394279     -0.39494381428459
