20
Coordinates from ORCA-job NEB_reactant E -51.245797249450
  C           2.64197003917210      0.74821288619185     -0.52223286173069
  C           1.72838176068311      1.71228255677769     -0.61597927498067
  I           3.38125352479958     -0.27642751142433      1.14650152406784
  H           3.10316563980656      0.38512500591688     -1.42570600546206
  C           1.41788419417415      2.24127151394114     -2.00004193382280
  C           3.36764215607017      3.60618225424149      1.24237092944052
  C           2.63333908244080      2.83702395556084      2.03207210561833
  C           1.26090221880594      2.35762973251309      1.67136855968534
  O           0.99007847525059      2.39187065340985      0.28311488486703
  C           4.76783303538781      4.02278037512829      1.50071396743151
  H           2.99507735777321      3.96610404863202      0.29308778416370
  H           3.00285105455714      2.50304799721940      2.98962168246012
  H           0.50578530534637      3.02840378971068      2.09699434231414
  H           1.08790607280229      1.35443012820128      2.07470588142875
  Br         -0.13546103994898      3.38546084259978     -1.97643145880985
  Br          2.94638057490276      3.30880161164478     -2.64832987453846
  Br          1.08978891759285      0.81777015846747     -3.28497996068905
  Cl          5.81552882816431      3.19311145788924      0.30015974795187
  Cl          4.93175977294534      5.78325627857123      1.26120458934703
  Cl          5.34763302927390      3.61556226480736      3.11918537125740
