21
Coordinates from ORCA-job NEB_reactant E -36.696270190400
  C           1.30023559939677     -0.21271368880724     -0.27343710799380
  C           1.36354080948573     -1.44320195208405      0.24471769969725
  O           1.45063204343211      0.03834334034928     -1.59067754141926
  H           1.12375137762293      0.63667953649559      0.37729498073970
  C           1.10631367498812     -1.69218485213614      1.70574931465409
  C          -0.11101749653892     -2.31494282744225     -3.19342003292947
  C          -0.34046338634237     -2.40126469419980     -1.89988102638053
  C           0.50103763741308     -3.26171900782796     -0.99853469501950
  O           1.64540815946148     -2.55349512199263     -0.53191102110634
  I          -1.16360125592234     -1.00704743553487     -4.45544694015744
  H           0.63936319030492     -2.89084984205692     -3.70663030089525
  H          -1.09132550970954     -1.79216107574780     -1.41755353323644
  H           0.91138566452122     -4.11768408995277     -1.53888513634523
  H          -0.10191693087667     -3.61468671847976     -0.15117934488891
  C           1.37226001022485      1.39296021198422     -1.97465040387715
  H           1.49481336931434      1.40977795808133     -3.05574539142576
  H           2.16564848732128      1.98526772794790     -1.50822850124746
  H           0.39979674730356      1.82310941273073     -1.71516123294537
  F          -0.25323146723760     -1.66133610778902      1.97764938740068
  H           1.55858117008968     -0.92584229795568      2.34068751991692
  H           1.45968810574737     -2.68650847558215      1.99174330745929
