27
Coordinates from ORCA-job NEB E -43.924551433910
  C          -0.40959769260370     -0.68747980671788     -0.67069878226367
  C          -1.69001031080867     -0.28696173256479     -0.28715528881016
  C          -0.06780819359417     -2.15546919878059     -0.67174076040831
  H           0.05615572251476     -0.19807579477648     -1.51471346432185
  O          -2.23586531651954      0.88772100922378     -0.71685746754795
  C           0.65193431601613      0.00777994016361      1.01973811590987
  C          -0.34899397158519      0.39762731649726      1.89657406995107
  C          -1.36299267805899     -0.51675934890784      2.22958218133727
  O          -2.25712475112889     -0.76816644942217      0.74285134890721
  C           1.63768477800356      1.03339170745993      0.52126214490853
  H           1.06977494845895     -0.98003455363414      1.15837643209235
  H          -0.59491792714186      1.45249688487215      1.94161942425579
  H          -2.17282996028840     -0.17812629381062      2.85972760005053
  H          -1.08222722987019     -1.54941266315713      2.38597404328621
  F           1.24224910383543     -2.33458811382522     -0.99079355002410
  F          -0.24268777369916     -2.78572366022066      0.51003919329854
  H          -0.65497881721628     -2.71604550692403     -1.42158106639218
  C          -1.72971519815441      1.53057822219576     -1.86194665192366
  H          -1.64986020212960      0.84157593376711     -2.70812450896066
  H          -0.75359765969933      1.98507812044286     -1.66865231400311
  H          -2.44737036674376      2.31379595242622     -2.10113695265742
  C           2.74686354022332      0.45460867499486     -0.34812264017813
  H           2.09307247547875      1.49633258840761      1.40256392450651
  H           1.11181933032774      1.82757910126324     -0.01467726880821
  H           3.28114513441392     -0.32470084204961      0.18939673091519
  H           3.45656196912541      1.23314579200464     -0.61896124625270
  H           2.35331673084415      0.01983272107215     -1.26254324686695
