27
Coordinates from ORCA-job NEB_reactant E -43.964568783650
  C           2.36347289465763      0.37587982421748     -0.00331179047460
  C           1.76236846867182      1.52701692360905      0.34883842078884
  C           2.58340613008175     -0.83231656348044      0.82732498470907
  H           2.68245777263931      0.30199619611660     -1.02797292402447
  O           1.56983217521152      2.42285297728645     -0.64673909467840
  C           4.46390550196319      2.40346906064701      2.52915369752044
  C           3.19852068420160      2.76461181879777      2.66496754101614
  C           2.05688209917308      1.79512243592958      2.72064154896989
  O           1.25404142049920      1.90016561873479      1.53429972479855
  C           5.61023224160026      3.35187525145569      2.39929326200553
  H           4.72406247988066      1.35440476233938      2.49002170833976
  H           2.92257740450217      3.81134399934595      2.69281750930300
  H           1.35892672084387      2.04994968621866      3.52205507175669
  H           2.41783465939114      0.77933710817891      2.87530139643058
  F           3.70722479092858     -0.75334360366629      1.61712345078147
  F           1.56859472171064     -1.08128300496222      1.69843571026034
  H           2.70973648751252     -1.73194446887161      0.20696652456204
  C           0.94635639255410      3.65148201941005     -0.31778081800471
  H           0.90008717871233      4.20818174649186     -1.25119905529891
  H           1.53240593248958      4.20765622246189      0.41787475629520
  H          -0.06079272075817      3.49041430619724      0.07243672431053
  C           6.31697125996994      3.15428127633125      1.05787052276191
  H           6.32230409132866      3.16490693395271      3.20761449082209
  H           5.25857062598193      4.38184367412547      2.48590078114423
  H           6.68226796159825      2.13392870855955      0.96896057514517
  H           7.16070470925219      3.83432778875104      0.96825124800698
  H           5.62874791540223      3.34383930182219      0.23705403275265
