23
Coordinates from ORCA-job NEB E -28.248777553570
  C           1.25873608593221     -0.61875962846921     -0.28467423707328
  C           0.00448303652780     -1.21901228080785     -0.23017095388643
  H           1.97762431065778     -0.86185498366207      0.48197115399476
  H           1.69597346374973     -0.45878502297504     -1.26065448987186
  C          -0.83541674177861     -1.36932429382122     -1.48069088748327
  C           0.81345691254216      1.13760526323551      0.41796647295716
  C           0.30983208948319      0.79559049769256      1.67081163378876
  C          -0.85992805632840     -0.02365422783388      1.72145671205630
  O          -0.55616687399444     -1.39415631720875      0.94258654448076
  C           2.09058031036862      1.92937544398583      0.31978531050727
  H           0.08757943753912      1.41219237701514     -0.34198072820581
  H           1.01193457744023      0.71328683516982      2.48969116989291
  H          -1.71700418288570      0.34806150800270      1.16598585099813
  H          -1.14480143532961     -0.38118312334899      2.70483932306398
  C          -2.27137205690634     -0.87557861287406     -1.32097537303212
  H          -0.86131455379461     -2.43475690917655     -1.73306890458607
  H          -0.34343072686621     -0.85049931897790     -2.30559684359198
  H          -2.72889510253632     -1.33918420717290     -0.45021888440710
  H          -2.85768146985749     -1.13451717281725     -2.19958998452242
  H          -2.29831540924995      0.20560916644367     -1.20002983312175
  H           2.50673529278928      1.88209949638092     -0.68349124620294
  H           2.83170625478948      1.56293120147859      1.02581599873547
  H           1.88568483770809      2.97451430974094      0.55023219550952
