23
Coordinates from ORCA-job NEB_reactant E -28.283982520440
  C           2.63118763151227      1.32505426775850     -0.78150105393383
  C           1.56360402706283      2.05397427885810     -1.07927297475750
  H           3.18987049325794      1.43297529064884      0.12971756580117
  H           2.98918373703862      0.58960817936233     -1.47732496154712
  C           0.78848762428024      1.89574604007900     -2.36070115726950
  C           3.38327449251841      4.54270707014852      0.05806647328319
  C           2.79350756729871      3.94428466661222      1.07808146906813
  C           1.48616313001974      3.20580605221707      1.00812744691979
  O           0.98323855217232      3.00611166434928     -0.29170879712434
  C           4.67654449841336      5.27976341621328      0.14055123171733
  H           2.92492486604500      4.50931102136808     -0.92133316045574
  H           3.23266628743014      3.96919274562023      2.06703445144850
  H           0.71351064077113      3.79412318403164      1.51955242863125
  H           1.57688006390808      2.24238830647128      1.53189263720600
  C          -0.45262084912922      1.03106583533411     -2.13941806338083
  H           1.42657782191478      1.44260464511162     -3.11927299434484
  H           0.47921782699060      2.88485953235628     -2.70293623928274
  H          -0.16521342802547      0.03632239841746     -1.80600728458612
  H          -1.02052167064947      0.93881680881136     -3.06227071773615
  H          -1.08987642401717      1.48025234406576     -1.38179450775549
  H           5.40977766579030      4.82500782155428     -0.52514814143210
  H           5.06828834529378      5.27143543915789      1.15485433499262
  H           4.54002710010308      6.31318899145287     -0.17688798546166
