17
Coordinates from ORCA-job NEB_product E -38.888215274730
  C           3.22454585260173      1.29111724673501     -1.10282637133366
  C           1.76347245080588      1.08399314477672     -1.33895725379963
  H           3.56594936462741      0.57392852501916     -0.35070947163381
  H           3.74652050537870      1.05635479419675     -2.03710460988427
  F           1.50801332815149     -0.23756340633589     -1.54399601178497
  C           3.51129153902390      2.73239406495152     -0.66185873717279
  C           3.00004640198409      2.99343316959533      0.73016460699299
  C           2.08539409977106      3.89930306660348      1.01282622630052
  O           0.88067883993669      1.86175645108814     -1.38019411692902
  C           5.01725454448550      2.97765656971004     -0.70068284115775
  H           3.05158414240342      3.43307450150455     -1.36639619635643
  H           3.44191904164178      2.37842336813475      1.50242717475843
  H           1.63798199624840      4.51292661535456      0.24964148753147
  H           1.74010964528232      4.05414378017969      2.01957508719874
  F           5.52613846796410      2.78989359244564     -1.93036114411917
  F           5.33603055832170      4.22504807692506     -0.34141798829085
  F           5.69096922137185      2.15291643911548      0.11437015968021
