17
Coordinates from ORCA-job NEB E -28.782863625380
  C          -0.79779548796814     -0.28607795798752      0.84527500608746
  C          -0.20968781664566      0.55167945640847      1.78352330920396
  I           0.11654597887598     -2.56068470645545      1.03651619866687
  H          -1.82584807576253     -0.55546113542474      1.04960958909754
  Br         -1.02901005117729      0.99426142197194      3.41812695635802
  C          -0.53189036960183      0.18351869049970     -0.61983819401430
  C           0.90990524416574      0.49534977510554     -0.72161883330666
  C           1.69241068325926      0.88803781378305      0.45835156259555
  O           1.00919477304217      1.10198850449902      1.66304939049992
  C          -1.00078820354464     -0.79043656156233     -1.69686255960156
  H          -1.14853524330423      1.09114837775351     -0.72224415663497
  H           1.47554796616953      0.04754681937252     -1.52210937118683
  H           2.26169559307165      1.81191707621437      0.28731344907476
  H           2.43908347145566      0.09944402612846      0.65086692594892
  H          -2.02001022478504     -1.11263095064627     -1.49818858055659
  H          -0.36227047210863     -1.66711354464687     -1.74851269787473
  H          -0.97854776514200     -0.29248710501338     -2.66325799435735
