19
Coordinates from ORCA-job NEB_product E -40.200874522120
  C           2.97400986821889      1.96858868812795      1.53389406752714
  C           1.47073464894819      2.23046341117019      1.46910911233006
  Br          3.59098056969868      0.78267703170424      0.10058512783810
  H           3.48797853097549      2.92319501248878      1.35291688553690
  C           0.87396249323267      2.24746679253952      0.07738539128693
  C           3.38329270443311      1.44949889827717      2.91300940913794
  C           3.11248265985462     -0.01047309409935      3.12127395278509
  C           2.07113612730422     -0.45689660411691      3.79718119017739
  O           0.84066823445404      2.44415454427396      2.46478441204666
  N           4.83180220018530      1.75521639061197      3.16603620485591
  H           2.81956284463069      2.04040131759825      3.65039906915795
  H           3.82282235913514     -0.68701017053978      2.66745199811681
  H           1.35809843614505      0.20968183317809      4.25415339452676
  H           1.88741106777874     -1.51046469806085      3.90945994916496
  F          -0.36900630390075      2.80003662377914      0.10000819718765
  H           0.77056248478957      1.22049591537948     -0.29623012960670
  H           1.48948388285245      2.83172144665751     -0.61642368377028
  O           5.44020010913361      0.97781726121233      3.84843385040843
  O           5.26321708213028      2.77672939981831      2.69107160129230
