21
Coordinates from ORCA-job NEB E -40.902158332730
  C           0.67120525035660     -0.53831258904055     -0.95215944706057
  C          -0.32206553218926      0.42425133475453     -0.74420792908307
  C           0.31413605217132     -1.93470779238177     -1.38644006157633
  H           1.55093028754384     -0.18097479378688     -1.47503169739367
  O           0.04501712179451      1.69274243791236     -1.03921471052599
  C           1.22025528474899     -0.86090215271166      1.02550303881179
  C           0.30336968656145     -0.17135990819904      1.79667373421105
  C          -1.06464131220489     -0.41498062217307      1.53289610645773
  O          -1.35738925137749      0.22063727257133     -0.02420738936361
  I           3.26341310435531     -0.32143608313369      1.16714114986863
  H           1.11809856575730     -1.92726725113423      0.90513083749657
  H           0.57610633585356      0.80373481202079      2.17990784049793
  H          -1.79207182681676      0.15008536135898      2.10103879726353
  H          -1.36232712321922     -1.44053029425199      1.35258081100930
  F           1.38990887257328     -2.75605738227297     -1.29441538211291
  F          -0.65464206829882     -2.51484464105049     -0.64048448149797
  H          -0.02278758912190     -1.96301568197796     -2.43744349772548
  C          -0.81307054652746      2.73014683264245     -0.59552377219631
  H          -1.82364840305297      2.58746229196325     -0.98501037473988
  H          -0.38484473921229      3.65135538570001     -0.98202805599529
  H          -0.85495216969510      2.76397346319060      0.49529448365455
