21
Coordinates from ORCA-job NEB_reactant E -40.936710226030
  C           1.60432212169703     -0.04648078250383      0.10760410368500
  C           1.80933116260223      0.98630957705270      0.94924684033008
  C           1.78214770602905     -1.50477812826269      0.29515835954150
  H           1.24843697414964      0.24564663431963     -0.86540673211318
  O           1.53443405019517      2.20733895885471      0.44651902350985
  C           4.25424893196133     -0.02030472460442      4.81031904115765
  C           3.11170828091864      0.37182985070977      4.28326936599324
  C           2.62784642617540     -0.10416601091493      2.94864807519429
  O           2.23977972420375      1.05039464712600      2.21560467292912
  I           4.91934796131710      0.61236573212514      6.69802013142796
  H           4.92603067861648     -0.71103293916782      4.32930709066002
  H           2.46053960228109      1.06999116089838      4.78843444139152
  H           1.76199088707087     -0.76174109996956      3.09465406252391
  H           3.41760670249621     -0.64952704726720      2.42547697063834
  F           3.07507857748551     -1.87340417995271      0.56836741167561
  F           1.05650570885907     -2.02080740704540      1.33609643219354
  H           1.48239988555697     -2.06026552656905     -0.60381263537762
  C           1.72561221056753      3.33548173940163      1.28282157977832
  H           1.45493013753541      4.19236803341399      0.67002019251795
  H           2.76622352113220      3.41956994868155      1.60374213289718
  H           1.08097874914929      3.28851156367411      2.16330943944570
