17
Coordinates from ORCA-job NEB E -25.944713218330
  C          -0.73174340413996      0.25625739189059     -1.14351472391473
  C           0.47999734436413     -0.17924407963461     -1.70394774245991
  Cl         -2.10968124706193     -0.86327867566484     -1.32866551559536
  H          -1.06796217056721      1.24585515516663     -1.43253020505508
  H           1.17479356272765      0.57555373403621     -2.07212636288882
  C          -0.44153971922611      0.24241043227703      0.66725494282396
  C           0.62043294428356     -0.66002118795261      0.93410830085666
  C           0.64535184580448     -1.83275277240499      0.08555554905202
  O           1.05063447074282     -1.27525728961897     -1.26994805179271
  C          -0.26021103417302      1.66832637679239      1.13956568607854
  H          -1.42384886934227     -0.14542504469994      0.92618452901374
  H           1.59238536884569     -0.22536152775285      1.14246213071988
  H          -0.31963244549251     -2.32578308193083     -0.03664174294683
  H           1.43342017411150     -2.55257464414522      0.28793689739487
  H          -1.08964739614176      2.29493963143517      0.82168876779051
  H           0.66612122631593      2.08955940744827      0.75567291068733
  H          -0.21887065105100      1.68679617475859      2.22694463023595
