17
Coordinates from ORCA-job NEB_product E -25.997077006620
  C           2.18082939641052      1.04476314622946      2.08788320935933
  C           2.27817143529560     -0.09029563065168      1.09392981453324
  Cl          0.69744053023114      1.89364341539639      1.51880525214517
  H           3.00357029422372      1.75218715440581      1.95633734010926
  H           2.52317473491980      0.25590056697558      0.07164698741382
  C           2.05543473454203      0.58743925127804      3.53911440442646
  C           3.34174496949991     -0.08814767630356      3.92760884599466
  C           3.43312095845631     -1.34488484500576      4.31514594790276
  O           2.05720036411856     -1.23947813807694      1.33507703992225
  C           1.78403643185864      1.76631278372848      4.47401223032717
  H           1.23527344379989     -0.13297276974762      3.60497635487287
  H           4.21990365680249      0.54423605684826      3.88966999536065
  H           2.57097076991346     -1.98868543919009      4.35371764311424
  H           4.37299327791657     -1.78545869613738      4.60058315793064
  H           0.84725287455651      2.25325336107989      4.21678170892474
  H           2.58645599255894      2.49837890429053      4.40777210860781
  H           1.72222613489592      1.41320855488059      5.50013795905493
