32
Coordinates from ORCA-job R E -39.051068129140
  C          -1.55083376308345     -0.69474938400414     -2.83616795769449
  C          -0.55587287183435     -3.48554330196565     -2.19957176515130
  C          -1.65468995641134     -2.90796132734424     -1.72026251744794
  C          -2.06589288738171     -1.53599629893359     -1.92850752375567
  C          -1.56704847065566      1.66753787779000      0.19118189021830
  C          -0.54426568718804      0.85883179749875      0.38992022698022
  H          -2.31588829767545     -3.49172235643423     -1.09111449800137
  H          -2.85368962033274     -1.18781960111616     -1.27452386090809
  C          -1.93479929985155      0.69380537376939     -3.01602566612123
  H          -0.32598411362868     -4.51605971751591     -1.99002882256956
  H          -0.75858893425279     -1.03942193800732     -3.48885131732396
  H           0.15860625905140     -2.95572856071080     -2.80584865719264
  H          -2.55779130621383      1.43706401039646      0.54407533280162
  H          -0.68029530977191     -0.07699716609007      0.91717605487224
  H          -1.45702156888303      2.60178798107836     -0.33466514295293
  C           0.85336184880911      1.13141194711195     -0.06635701514551
  C          -3.16388914868542      1.19951715402638     -2.58894487870514
  C          -3.47624336161012      2.53375128093950     -2.75937540736600
  C          -2.56908453384718      3.39506107017301     -3.35519376410907
  C          -1.34969127484134      2.90644815393937     -3.79472776166798
  C          -1.04061374669421      1.57009410408709     -3.63577124431703
  H          -3.88705235485292      0.53750116796301     -2.13755933663156
  H          -4.43367130106731      2.90761181009225     -2.42576134740301
  H          -2.81374868022179      4.43949560302695     -3.48187606630505
  H          -0.63950314989660      3.57085571233063     -4.26597026113244
  H          -0.08649119131578      1.19633422784309     -3.98079493103099
  C           1.42934906055562     -0.05146245879576     -0.84049826947625
  H           1.48074404345607      1.32071272434353      0.81094753974014
  H           0.86680183894496      2.02713741708180     -0.69037456628678
  H           1.43684652253080     -0.94649145436731     -0.22192333137217
  H           2.44850084688982      0.15884644048618     -1.15741272448259
  H           0.82164040995943     -0.25105228869250     -1.71862241006178
