18
Coordinates from ORCA-job NEB_reactant E -32.896014402780
  C           2.07062501502606     -0.06386127139058     -0.91049986070337
  C           1.36037953054605      0.68723131625261     -1.74048361425029
  Br          3.22237233308963      0.52870287713722      0.47752168034449
  H           2.02545888976140     -1.13686000757777     -0.96082585489277
  I           0.14868538656900     -0.34440640354821     -3.15180832266072
  C           3.86094191080899      2.23141159058665     -2.90578879887264
  C           3.49198985722660      2.80620001582236     -1.76605481737425
  C           2.05515650664040      2.95808610013586     -1.36126221811504
  O           1.18784404739792      1.98819699657397     -1.94387144130576
  O           5.10690795424199      2.01137667638957     -3.36714939944070
  H           3.13718178563625      1.85279742004521     -3.61711113045074
  H           4.20500176870699      3.19041882080890     -1.05571567487819
  H           1.64336596339742      3.90800533291535     -1.72137263657759
  H           1.96370914757158      2.94071151362516     -0.26972781168230
  C           6.18579493844658      2.42630671440429     -2.56005420099501
  H           7.08829963222286      2.13874843389404     -3.09557851924238
  H           6.16278272427893      1.92989909022713     -1.58511566599169
  H           6.17580260843136      3.51053478369825     -2.41340171291104
