18
Coordinates from ORCA-job NEB_product E -32.899641821010
  C           3.13837782116258      0.62490619544150     -1.71225325421183
  C           1.66608419167781      0.44250256625342     -1.62520706977581
  Br          3.84339164786254      0.54975330062612      0.11484481727301
  H           3.61137875759088     -0.18305793549995     -2.27429340904310
  I           0.84627245653669     -0.30988287115900     -3.49665527706097
  C           3.45214466608014      1.98296374173423     -2.42804408999383
  C           3.20486483601495      3.13354809244712     -1.48998588105999
  C           2.06469308568305      3.79598259976159     -1.45494039036577
  O           0.94403204766308      0.68538331403286     -0.72683112417083
  O           4.69445648396587      1.97768746924959     -3.06994864910460
  H           2.74802970619155      2.05779585216563     -3.26947879268676
  H           4.01095327410666      3.38560553873849     -0.81726102292710
  H           1.24407810246948      3.56316494476930     -2.11464763447326
  H           1.90267481968026      4.60000643950423     -0.75891721042849
  C           5.86442168503268      1.82446398763582     -2.28991447004312
  H           6.68672133866085      2.02480697164818     -2.97397076040146
  H           5.96585653459845      0.80582169825139     -1.90317830270062
  H           5.91226854502247      2.53004809439947     -1.45811747882548
