25
Coordinates from ORCA-job P E -35.875386970140
  C          -1.32418202342892      0.23311182013706     -2.45567430604740
  C          -0.14479411645601     -1.75431945228272     -0.96311549504279
  C          -1.55004159893307     -1.95914339238435     -1.42873295980568
  C          -2.11832880493350     -1.00019224639444     -2.14156220022169
  C          -0.66499932313235      0.75250814915666     -1.16321723244108
  C          -0.01503073187977     -0.36123452587624     -0.31863042169411
  H          -2.05896523184633     -2.87287709868299     -1.16647260649479
  H          -3.13119255459950     -1.06919549287238     -2.50620303638992
  C          -2.18775905009481      1.30482638236583     -3.12514001551991
  H           0.15904602244628     -2.51809609166853     -0.24752665529656
  H          -0.51893918670864     -0.04628974525979     -3.14807444481229
  H           0.53327623821467     -1.80299454351441     -1.82120534576822
  H          -1.42976494893650      1.25477632282118     -0.56853065853990
  H          -0.48941091265374     -0.39945468997833      0.66689811472759
  H           0.09036367119388      1.49257220662078     -1.42999566335002
  C           1.45619404744448     -0.04224496525626     -0.06838586050561
  C          -1.39126776724257      2.50920926776368     -3.61369162355441
  H          -2.95771805949331      1.63628865884592     -2.42406367393078
  H          -2.69260377257632      0.84900579462310     -3.98023325787607
  H          -0.96718012016187      3.06565443893158     -2.78189719810159
  H          -2.03579083391888      3.18206543882124     -4.17469298764076
  H          -0.58021423491841      2.19061811162761     -4.26501493834072
  F           2.03253769495187     -0.97758507685378      0.72880240980174
  F           2.16986354224759     -0.04478215224285     -1.22176738190506
  H           1.61147205541572      0.93722288155243      0.41197743875004
