25
Coordinates from ORCA-job R E -35.780602496280
  C          -1.44747714398702     -0.22982032544076     -3.01563362464829
  C          -0.61324546377273     -2.74691658675048     -1.54707708677910
  C          -1.83426577383620     -2.22070092818690     -1.58124983944700
  C          -2.24285959597086     -1.03325801771928     -2.31134905275668
  C          -0.62398961038349      1.42404606625035      0.39143161699257
  C           0.19090760788462      0.48694901716395     -0.05180400801685
  H          -2.62451204899178     -2.70199861575320     -1.01736849127347
  H          -3.30045002169575     -0.80279340284363     -2.25857786626367
  C          -1.90749646222398      0.99004271989592     -3.74121041504823
  H          -0.39895785612548     -3.63162962690010     -0.97193736884086
  H          -0.38698386539860     -0.42524781040488     -3.08292422129584
  H           0.21314073514492     -2.32576759145893     -2.09378949291051
  H          -1.62670425464591      1.19006771507443      0.70288863306134
  H          -0.10374240233444     -0.54948361095780     -0.13038629089577
  H          -0.32354368267401      2.45701568361414      0.46398384072808
  C           1.59023610704758      0.77322544340932     -0.49787239004823
  C          -1.17793229623262      2.23551515551220     -3.23657881467596
  H          -2.98539277511925      1.11769012512237     -3.62049400264611
  H          -1.69770878115632      0.86844325903625     -4.80827967942573
  H          -1.40358698617247      2.40259353290337     -2.18539921797655
  H          -1.48317359104429      3.11217576193233     -3.80312988123447
  H          -0.10257187740985      2.11086517612108     -3.34106779680688
  F           2.48895049722156      0.07148754581773      0.24205056299668
  F           1.78059585901619      0.36873212519828     -1.78247356953894
  H           1.86535368286018      1.83780718936423     -0.43925154324953
