23
Coordinates from ORCA-job NEB E -51.712064022320
  C          -0.48506360502443      1.03316036276082     -0.27586612457272
  C          -0.57330942553870      1.14576809734154      1.13077846379353
  N           0.54490750029323      1.49335909922150     -1.12798287429383
  H          -1.44938926300423      1.06395064729669     -0.76891779529061
  C           0.61517441027753      1.54676981769747      2.00905574977038
  C          -0.29940432270816     -1.09408775981600     -0.56762192471777
  C          -0.78902523287574     -1.55157108726811      0.67697730923843
  C          -2.01660449307127     -1.19175953249211      1.14307772695236
  O          -1.59757854010024      0.72667706747456      1.69059442603528
  O           0.96341135819548     -1.34807160874276     -0.84703120634316
  H          -0.98485065191527     -0.99565061283720     -1.40881772238948
  H          -0.04328553763255     -1.93446497454029      1.35914660936566
  H          -2.34092358299345     -1.50293482888232      2.12031395335390
  H          -2.78809875963951     -0.84903478750279      0.47375910647166
  O           1.68053352812717      1.59310274036018     -0.71666481293610
  O           0.21262377143307      1.70177746014266     -2.28459336972771
  Cl          0.09177600953251      1.58380899005505      3.70174231624427
  Cl          1.90002249650300      0.32842012907606      1.85506346464243
  Cl          1.21787300085419      3.15712845897068      1.57673282002466
  C           1.43279168554594     -1.24073317381364     -2.18299652843668
  H           0.67550259232657     -0.83082266317989     -2.85363972751287
  H           1.72073031683261     -2.23850992559177     -2.52038322719995
  H           2.31218674458226     -0.59628191573032     -2.18272663247170
