23
Coordinates from ORCA-job NEB_product E -51.739257324390
  C           1.66984737910815     -1.21327401849314     -0.83095651219913
  C           2.91411012109487     -0.99668344402946      0.02011617457796
  N           1.82774536006243     -0.34437611073039     -2.05401927946376
  H           0.78308840776670     -0.84924109943962     -0.30402185833693
  C           2.76988246635251     -1.27619704633501      1.53310570298882
  C           1.51208738178870     -2.70834653510676     -1.20429389934587
  C           0.57931139304469     -3.40915908106904     -0.24885218156604
  C          -0.71813729809904     -3.52543757374355     -0.45853727682277
  O           3.96550212961177     -0.65533835465184     -0.41978724288436
  O           2.80446376734029     -3.27447792968662     -1.21419202802734
  H           1.08529543789673     -2.74250885016875     -2.22187624787482
  H           1.05147355352122     -3.82812210853895      0.62693821560146
  H          -1.36023475957964     -4.02801858544077      0.24282972247491
  H          -1.19190989242055     -3.11845641916110     -1.33722487401074
  O           1.86879300055727      0.83459077544594     -1.82839563918605
  O           1.87344992363009     -0.86815750379060     -3.12996338767732
  Cl          3.42060925596889     -2.90894344110211      1.79851732816556
  Cl          3.76158209889126     -0.09716541254816      2.41563404239113
  Cl          1.11300143616314     -1.19671825314085      2.14305134146437
  C           2.88709449831427     -4.48192593862788     -1.93433817562895
  H           2.60902162114941     -4.32913230050021     -2.98285480767625
  H           2.24204622146025     -5.25243653302246     -1.49870252868153
  H           3.92617649637656     -4.79607423611865     -1.87377658828236
