18
Coordinates from ORCA-job NEB E -41.168985875930
  C          -0.06898294734734      1.32739725456475     -0.03928646705051
  C          -0.77625184140862      0.90487501857680      1.10991492688028
  Cl         -1.02373360315619      2.12546015670923     -1.30841845250121
  H           0.82505626650395      1.91633534655136      0.14768420410234
  C          -0.18778142430276      1.09025220210401      2.37929264506267
  C           0.39374394610571     -0.28824955014153     -0.88037294540483
  C          -0.50072261914567     -1.27385443845798     -0.41191634627397
  C          -1.87206387236579     -0.79183958262153     -0.20929143873164
  O          -1.74303430909796      0.00465088213498      1.01260922027806
  C           1.86337418968691     -0.56931446292039     -0.71051701795204
  H           0.18895579152379      0.07405521755214     -1.88760734904708
  H          -0.14759504707821     -1.98036287744169      0.33104353992811
  H          -2.59020046110347     -1.56403950341770      0.05732292128369
  H          -2.24816227740796     -0.17057013375376     -1.02479630110259
  N           0.24839163814614      1.34829095010232      3.41030514734082
  Br          2.33406255968918     -2.18091654926205     -1.73255653520988
  Br          2.95696404292034      0.89060102759553     -1.40656176654939
  Br          2.34797996783795     -0.86277095787450      1.16315201494717
