18
Coordinates from ORCA-job NEB_product E -41.206299213950
  C           2.38159111833782     -1.20724268167153     -0.37334893119886
  C           2.12923020491856     -1.53052583911767      1.10061587510591
  Cl          0.83676461740339     -0.46308950392104     -0.91727343906898
  H           3.14873051948380     -0.43306761518151     -0.47834720656272
  C           2.84640814327023     -0.61581475806736      1.97414344367530
  C           2.69820584998648     -2.41688560070530     -1.27162626785152
  C           1.77283615569052     -3.57718612839068     -1.02188531501279
  C           0.77484212593480     -3.88007382712800     -1.82979839691639
  O           1.38202383645607     -2.37974550284635      1.49800086620238
  C           4.15215904077023     -2.84607002379184     -1.11129777762811
  H           2.57318128692045     -2.08399165178109     -2.31142395946428
  H           1.95627291224294     -4.15320788729894     -0.12587588592363
  H           0.12004820852171     -4.70688778253383     -1.62116944524506
  H           0.56809464268770     -3.31398417271578     -2.72333855912773
  N           3.42544533047961      0.11555494771905      2.63570366623237
  Br          4.49086666475073     -4.42792628598050     -2.19699802391927
  Br          5.37842509113097     -1.44280848623039     -1.71618595212088
  Br          4.59967425101400     -3.26674720035724      0.74760530882424
