18
Coordinates from ORCA-job NEB_reactant E -41.211630701790
  C           2.00451059524206     -0.24660049904354      0.26422008508281
  C           1.32857624062587     -1.17969986791680      0.95285085768719
  Cl          2.51998760301807     -0.29007425083924     -1.37681380026257
  H           2.28158900829968      0.66551399143829      0.76969803346874
  C           1.03695397302753     -0.83726659279829      2.30927593203388
  C           3.14765674329694     -3.45748615381499     -1.96681893906426
  C           2.55400590835997     -3.34522422524449     -0.78968022702952
  C           1.11100113317882     -2.97933093343125     -0.62482167053869
  O           0.84054745536244     -2.40042790036857      0.63363793187739
  C           4.56419736704037     -3.80484048770456     -2.19973988874719
  H           2.59933086243218     -3.27135363943671     -2.88288593282428
  H           3.08516675005778     -3.52408608753493      0.13615293362271
  H           0.50727331056825     -3.89518983595447     -0.62167792024790
  H           0.76536823275206     -2.33873587421906     -1.44300512248330
  N           0.80783188514642     -0.55881367702208      3.39507780804897
  Br          4.67068212075715     -5.39410708442769     -3.36734843196671
  Br          5.44086086711664     -2.30525123182359     -3.14316486389342
  Br          5.58965994371777     -4.17432564985804     -0.59545678476384
