17
Coordinates from ORCA-job NEB_product E -37.289174420140
  C           1.68839526962711     -0.46264213938259     -1.60682106288163
  C           0.98806677938260     -1.08714539987118     -0.42523957473956
  C           1.38900372065552      1.04805687798831     -1.61050085164786
  H           2.77196877603416     -0.57673921039696     -1.51250831260615
  Br          2.23298181266361     -2.04814906859081      0.75264379066241
  C           1.19352597693463     -1.23230171297077     -2.85061497815855
  C          -0.16939126739656     -0.85445975477805     -3.30668314747917
  C          -1.18432506556183     -1.69961670020563     -3.29717100938468
  O          -0.16306336145262     -1.09775508906456     -0.17716141240654
  I           2.62106682369651     -0.99862542107165     -4.49019321930749
  H           1.23591288999496     -2.30057689486601     -2.62340369901637
  H          -0.29340950171448      0.15718234578829     -3.66484052482467
  H          -1.08082848511304     -2.71563762192203     -2.95165282499766
  H          -2.16352089300632     -1.40215582400574     -3.62673462995643
  F           1.79244371119722      1.62047589614704     -2.76121880248733
  F           0.07358319844114      1.31477047138738     -1.49221779632239
  H           1.90878961561739      1.55611924581496     -0.78128194444591
