19
Coordinates from ORCA-job NEB_product E -38.092409582910
  C           2.94154419286659      0.96150938682510      1.57019331997832
  C           2.16576941440164      2.27897861898015      1.70738434226276
  F           2.30363874475972      0.13668432152028      0.66609872192143
  H           3.93885844462190      1.16344137628147      1.15868658756179
  N           1.05975129008133      2.35968774478670      0.95360645997041
  C           3.06455714866488      0.23287698082371      2.92109684958644
  C           3.55486098680990     -1.17479706083192      2.71449689616209
  C           2.90083542125434     -2.24241846046479      3.12636575726814
  O           2.53721522006818      3.15488881798653      2.45684633370572
  C           4.03783726378116      0.99868935349508      3.82631273971864
  H           2.09136285287284      0.21901880123324      3.42264086235382
  H           4.50555036512899     -1.25782490754061      2.20707946846944
  H           1.95457556746495     -2.17024228359091      3.63681833613210
  H           3.28757091651237     -3.23406498537182      2.97122003595993
  H           0.50974498952396      3.20199551382981      0.98941028402527
  H           0.78729578204112      1.61707200795783      0.33260726496731
  F           4.09870664499402      0.40970863563051      5.04363096043961
  F           5.29556781839904      0.95559134400019      3.32127756922879
  H           3.76255693575306      2.05390479444942      3.96342721028801
