19
Coordinates from ORCA-job NEB_reactant E -38.054901316380
  C           2.36969292651822      0.37674708126009      0.42396498120638
  C           1.58717885370399      0.84473038219313      1.39996557544145
  F           2.96764215016205     -0.84498659400463      0.43877550468088
  H           2.63135925737816      0.95083396644465     -0.44693743662642
  N           1.07525473607118      2.13775917286606      1.34576267078875
  C           3.85139375317249      0.56140292544848      3.51905263225243
  C           3.30321272068244     -0.63814554169102      3.42586800072745
  C           1.88816232712666     -0.90193501536871      3.01455097735412
  O           1.18621639255156      0.23312746400941      2.55176590475378
  C           5.26947654803510      0.79538503260068      3.93774910090745
  H           3.31444131635692      1.46742979458184      3.28000942349480
  H           3.87333308923035     -1.52553962537955      3.66100607066056
  H           1.31630768339146     -1.23645590386052      3.88783485597993
  H           1.87041974301881     -1.70843074363659      2.27225943102110
  H           0.26277182782974      2.24924377319005      1.93495383423464
  H           0.94844171812910      2.50783014858074      0.41709185830757
  F           5.93812718850923     -0.35635537269145      4.18080102169174
  F           5.96249265892700      1.43803111938375      2.95880439038504
  H           5.34447510920554      1.42052793607358      4.84522120273834
