18
Coordinates from ORCA-job NEB E -30.206151840800
  C           0.59699833700402      0.85196682331472     -0.63103559434291
  C          -0.71432628008274      0.66609070624251     -0.18157339941727
  F           0.77945001822638      0.98686868745755     -1.96677749100287
  H           1.29548011689892      1.49578352254932     -0.10657597325506
  O          -1.05371259214593      0.83658461483540      1.13637829570910
  C           1.21527001852139     -1.01892566307595     -0.41551241965263
  C           0.29089076820242     -1.70421699862696     -1.18482007349293
  C          -1.07423722016250     -1.66251488763373     -0.76071832140726
  O          -1.50730973839501     -0.10852260382159     -0.84424797479964
  H           2.23416148541636     -0.94761963358918     -0.76830806147370
  H           1.12223691791603     -1.05959339827973      0.66244598988641
  H           0.48883523664299     -1.83594603757189     -2.23793053851011
  H          -1.25700943545145     -1.87626050625441      0.29036240458510
  H          -1.80089986779749     -2.13016650141736     -1.41363246813744
  C          -0.29002348900868      1.70771992251866      1.93664495466556
  H          -0.87140357380767      1.85854847402211      2.84502204042486
  H          -0.13258116250496      2.67012672255878      1.44172015813348
  H           0.67818046052790      1.27007675677176      2.19855847208733
