16
Coordinates from ORCA-job NEB E -29.726817181500
  C          -0.06183414451734     -1.22015858534428     -0.92403083696967
  C          -1.35635216805569     -1.03954363274029     -0.49225596299570
  I           1.19126742620117     -2.52280902396347      0.15350619947613
  H           0.14360550730720     -1.22151799621195     -1.98369062304676
  F          -2.16332843628822     -0.48249493667538     -1.48208245541105
  C           0.63625048679546      0.77985555056811     -0.26638434817504
  C           0.18615553433719      0.68498774073006      1.05441684755758
  C          -1.15925932287925      0.70413636994191      1.36127392038723
  O          -1.76941265889251     -0.95783292014250      0.66484836521035
  N           1.96296346721141      0.80082611832728     -0.55482246962347
  H           0.00382088432201      1.25849509352335     -1.00412129533978
  H           0.88517641332103      0.31294019297319      1.79109591785723
  H          -1.84549690824516      1.26358869412062      0.74291157787717
  H          -1.47459425882209      0.55050330481958      2.37948456853928
  H           2.57595495098032      0.31112200484581      0.08043511322628
  H           2.24508322722448      0.77790202522798     -1.52058451856977
