16
Coordinates from ORCA-job NEB_reactant E -29.746901715020
  C           2.25083142358031      0.72264950744886     -0.51232405063327
  C           1.49677380451718      1.81438809081768     -0.54695386511913
  I           3.37486379318951     -0.04018998418537      1.07461717046061
  H           2.29285511608211      0.10965985959641     -1.39410702325689
  F           0.84406512126099      2.02266581618222     -1.71701247138182
  C           3.83156139861871      3.85726762010281     -0.00235980942161
  C           3.38369298119254      3.37565408402656      1.15645515992813
  C           1.93763825624019      3.09355763830027      1.43503834146428
  O           1.17034012484449      2.80608119177099      0.27006961996955
  N           5.15796540368647      4.01630069342954     -0.32829087647547
  H           3.14732164510165      4.08061516759035     -0.81061531785514
  H           4.06530056150177      3.15517233718118      1.96362830107706
  H           1.43372412534882      3.97536025152436      1.84932678223163
  H           1.83987774159700      2.27974319559279      2.16236895432050
  H           5.80283836977859      3.98553396099524      0.44646969207426
  H           5.37225013345966      4.71494056962610     -1.02021060738269
