16
Coordinates from ORCA-job NEB_product E -29.759714196260
  C           2.97788083309067      1.65755141050478     -0.71213192203826
  C           1.53083852441400      1.36692498615022     -0.50808420670232
  I           4.11051572930333      0.03861147972994      0.13363634828188
  H           3.20751919286516      1.67593263018147     -1.77967152711733
  F           0.77951697774687      2.27352705466623     -1.20091056989809
  C           3.34424970564657      3.03644870013285     -0.11878798793303
  C           3.05609089938405      3.07695639595596      1.36025550511630
  C           2.06346664768974      3.75939868939875      1.89772806766183
  O           0.99547152612535      0.53652367006578      0.12896426107432
  N           4.71552585383757      3.34184413144255     -0.47546529754621
  H           2.70574638042581      3.76818969769064     -0.63300758624254
  H           3.73844868685913      2.50742399789869      1.97875250201250
  H           1.37678838745291      4.33417981975974      1.29697963776624
  H           1.89158051615060      3.76860174594593      2.96005793231478
  H           5.35937296951638      2.73041980119932      0.01899588684860
  H           4.94268716949185      4.29806578927717     -0.23181104359867
