21
Coordinates from ORCA-job NEB E -37.596351675520
  C           0.52283764903175     -0.53372684192961     -1.08281277541376
  C          -0.41386135797809      0.41466339395339     -0.68506041008729
  C           0.11067938716338     -1.93874183623131     -1.42678865722207
  H           1.28457042528656     -0.17251950816149     -1.76229313521865
  O          -0.12019290664535      1.69335273991798     -1.04722241857838
  C           1.44039225443887     -0.85215040697818      0.79131527751588
  C           0.69062176610360     -0.12262189557109      1.68344644178464
  C          -0.71135355253498     -0.36199917121249      1.69592912126884
  O          -1.28475528646442      0.21700423340416      0.23605986075138
  H           2.46475298185503     -0.56736603168573      0.60470521732774
  H           1.24804732946214     -1.90911753169980      0.71186515602119
  H           1.02867153240526      0.87004149851413      1.95670069889096
  H          -1.32224673725628      0.21725354612404      2.37759974958761
  H          -1.02356892213670     -1.39745962707211      1.62159062845264
  F           1.19782109729063     -2.74694692294754     -1.53606640547738
  F          -0.69376143672950     -2.52475102324814     -0.51063516720763
  H          -0.41748597516602     -1.98845992003023     -2.39626209890008
  C          -0.86414271261777      2.72286327587330     -0.42054197528625
  H          -0.44325856884555      3.65580872186971     -0.78743403298682
  H          -0.77271034241127      2.67062712705083      0.66624455817973
  H          -1.92105662425130      2.65424618006018     -0.69033963340229
