21
Coordinates from ORCA-job NEB_product E -37.652380625360
  C           2.50705837192755      0.42743581903813      1.11046257098771
  C           1.17969296387119      1.17859949975235      1.24864030606727
  C           2.21657151153554     -0.96111992432101      0.52828423615614
  H           3.12897471431480      0.93561551532835      0.36375615453644
  O           1.19042780019011      2.49249423648056      1.48729070675719
  C           3.29174494039182      0.29386726836660      2.43545205583070
  C           2.39416303342273      0.08928880701231      3.61980004169558
  C           2.47620607711444     -0.94155814418416      4.43736971517307
  O           0.12181490758358      0.63076554842282      1.10650491326238
  H           3.89982287021971      1.18862139338883      2.59079473164387
  H           3.97418080686050     -0.55362501594778      2.34217476834512
  H           1.64997607451867      0.85850565480782      3.78336883918596
  H           1.81876482890307     -1.04894847215929      5.28195993834649
  H           3.19872331405450     -1.72642648066841      4.28881835233477
  F           3.35600917105400     -1.46173095246472     -0.02261086427331
  F           1.84387648158814     -1.84932750379367      1.46774698619789
  H           1.44109209652767     -0.94444048168075     -0.25114721915535
  C           2.35962846877555      3.26990010547083      1.65282933379176
  H           2.03363597479243      4.30458201107297      1.55280967212777
  H           3.11196017460452      3.05633759501735      0.89119104554336
  H           2.78527541774946      3.12726352106087      2.64820371544518
