21
Coordinates from ORCA-job NEB_reactant E -37.630402350600
  C           1.62790830579403     -0.05647117638723      0.06608857352618
  C           1.85891593196068      0.98510570972115      0.89130667100344
  C           1.74584366526195     -1.51599020638503      0.28438713944293
  H           1.28969929885554      0.22904519922482     -0.91520282821666
  O           1.62295762071188      2.20415816453524      0.35746065962525
  C           4.18607707623586     -0.05408006533882      4.87205066367567
  C           3.11476603178182      0.40261179371893      4.25345999237595
  C           2.65131187801767     -0.08233108812049      2.91484836323069
  O           2.28077790359505      1.06472992777019      2.15494508367442
  H           4.47336810094908      0.30171445763134      5.84614398615886
  H           4.81128235604976     -0.81473293031820      4.43460776363376
  H           2.49253984132269      1.16805342329726      4.69537274825222
  H           1.77987716534475     -0.73487372061401      3.04815850758473
  H           3.44726547839593     -0.63653428438763      2.41084995280824
  F           3.01663828785079     -1.93284897424997      0.58720945185828
  F           0.97925616771604     -1.98519595692012      1.31901812700158
  H           1.43943309170273     -2.07562247624805     -0.61034156673220
  C           1.85572829728591      3.34238070878204      1.16791565112363
  H           1.62605826006362      4.19542845610550      0.53313707350548
  H           2.89629893597897      3.38963649981380      1.49653356666616
  H           1.20349630512524      3.34341653836929      2.04425041980140
