23
Coordinates from ORCA-job NEB E -63.756795495380
  C           0.51508485095502      0.54414053047228      0.44164831677999
  C          -0.88324374190826      0.94049956870848      0.68852878711010
  C           1.18535730187691      1.56971989170611     -0.47823679714536
  H           1.11566316455647      0.49125305881932      1.35279390786889
  C          -1.45487911169576      0.88245167795037      2.01897417064643
  C           0.44572326786773     -0.94523832864226     -0.22835649315742
  C          -0.43847469808359     -0.86825307552939     -1.38174944378199
  C          -1.75644907689631     -0.39195375523817     -1.16148961324247
  O          -1.70079793930455      0.94962438077197     -0.31398412635866
  C           1.80267352970755     -1.58851366459724     -0.51440219484782
  H          -0.00027468962253     -1.52969391221080      0.58940765375364
  H          -0.01858992996695     -0.87338998903125     -2.37335409224214
  H          -2.35869983875330     -0.97965445922532     -0.46417541490478
  H          -2.31699185583760     -0.12482954385322     -2.05103943079666
  F           2.51473636603252      1.46230682333235     -0.47672776352311
  F           0.77764111691556      1.51657269021026     -1.74543318054367
  F           0.91631001247563      2.80912630618331     -0.03912928256945
  Br         -0.34236841173784      1.47978442948920      3.44803598287969
  Br         -3.19104048065681      1.66378257787022      2.10287510756881
  Br         -1.81216591757848     -1.28647600267461      2.44088495839095
  Cl          1.50097535886581     -3.33923014989192     -0.73007603446057
  Cl          2.58834531962884     -0.99183849245546     -1.98758422449670
  Cl          2.91146540315996     -1.39019056216423      0.86258920707231
