23
Coordinates from ORCA-job NEB_reactant E -63.784004059550
  C           1.44504545602389     -0.16990696696740     -0.04007582496049
  C           1.58061153555131     -1.34283036655493      0.59066298070332
  C           1.92889851160305      0.23552698069602     -1.39113628580110
  H           0.92685405435050      0.63697654204237      0.45427864279480
  C           0.96378294987641     -1.54751939078399      1.95610685817612
  C           2.88694326606420     -5.05352010512882     -2.01872132086483
  C           3.09889324666625     -4.21789258833523     -1.01526009443289
  C           2.68605846652553     -2.78036900508122     -1.04161792155456
  O           2.13331574003670     -2.50103339163494      0.24164051480166
  C           3.30233475236692     -6.47997966404784     -2.05443755395367
  H           2.39093276350505     -4.73081181550799     -2.92409811115005
  H           3.58666427220693     -4.53514598575771     -0.10510792049866
  H           1.94837588769855     -2.59926413436959     -1.82779448165630
  H           3.57124081310604     -2.15459432071091     -1.20897725195431
  F           3.26017643509810      0.09938376375381     -1.55402875141415
  F           1.36409811616735     -0.45462048254275     -2.40370407049958
  F           1.65234314859329      1.52072080743118     -1.61584301986832
  Br          0.70877042187163      0.05886889408027      2.99129490905056
  Br         -0.78565996301148     -2.39610122719535      1.66851059848744
  Br          2.06314377319135     -2.75579856794562      2.99695985871066
  Cl          1.86056433861452     -7.49689397036735     -2.34427306109138
  Cl          4.43789935994763     -6.71817971699293     -3.41802932642541
  Cl          4.08811265394625     -7.03451528807905     -0.57214936659886
