23
Coordinates from ORCA-job NEB_product E -63.792568720970
  C           2.18227738790178     -2.27845413777866     -0.10920013164119
  C           0.79861890313884     -2.52474735869478      0.49014219656165
  C           2.16878053950153     -0.87932860340330     -0.74803866782547
  H           2.98291936960113     -2.28974477703728      0.63512049886341
  C           0.65663172960900     -2.63454975841962      2.00565873991228
  C           2.45400872916479     -3.31559276100265     -1.22819727217070
  C           3.63977901161340     -2.93352862303246     -2.07449305826682
  C           3.55537629261806     -2.71833079843324     -3.37295785274619
  O          -0.18986835916252     -2.51882727489518     -0.18550774763104
  C           2.68005413625508     -4.71201347734424     -0.64151884980870
  H           1.55796493506846     -3.36514855845865     -1.86002604493179
  H           4.58032207709351     -2.85275648870944     -1.55016450050974
  H           2.62163237636983     -2.78948331543712     -3.90550821789487
  H           4.42169148267740     -2.45261865284755     -3.95191397949795
  F           3.40720403825435     -0.45479018879420     -1.01843562407814
  F           1.47770462805359     -0.83515284178275     -1.88435726038879
  F           1.63627352915322      0.03726635539895      0.06642604467970
  Br          0.33647342786296     -0.81020993463637      2.64476357852520
  Br         -0.90666083757141     -3.69990464538525      2.40417102166984
  Br          2.17503679304305     -3.34194949215771      2.95836482124742
  Cl          2.88124984485902     -5.87647503756042     -1.96778594834310
  Cl          4.12714488738747     -4.76896349035672      0.39310304075889
  Cl          1.27128507750746     -5.20939613923139      0.32825521351613
