18
Coordinates from ORCA-job NEB E -41.363074922170
  C           0.05456194214690     -0.54754864887419      1.34974373218161
  C          -0.40992698909227     -1.67792674737796      0.66919689693711
  C          -0.88752726981525      0.24391754182571      2.05202487446791
  H           1.02851140522804     -0.62514147468772      1.82092006090644
  F           0.52533729295750     -2.65044423578783      0.47934780695912
  C           0.23861671948529      0.76563350891134     -0.29566899416066
  C          -0.26785596540833      0.04750781081304     -1.37345679944624
  C          -1.57268496893483     -0.44217066869866     -1.28907278254787
  O          -1.42321634820249     -1.73935564506489     -0.04262105482583
  C           1.66368395459085      1.21392976762362     -0.29659708609432
  H          -0.42668892137472      1.48464758479706      0.17430735690848
  H           0.42660454628191     -0.46022413099214     -2.03251818541823
  H          -1.95864385711871     -1.04998289115539     -2.09275963327745
  H          -2.31376774080230      0.13990028394948     -0.75713950018164
  N          -1.64287285535155      0.89972557665375      2.60777754069697
  Br          1.88585183257163      2.58689198205198     -1.70765534952095
  Br          2.16486917974540      2.04904471760329      1.40114714469315
  Br          2.91514804309294     -0.23840433159050     -0.66697602827761
