18
Coordinates from ORCA-job NEB E -38.930599421640
  C           0.11270993958059      1.16358046222860     -0.14489157065396
  C          -1.27447214921477      1.00442537699468     -0.09227840756173
  C           0.82622621369510      0.96801685114094     -1.46977713726738
  H           0.54126036969151      2.00450073752635      0.39132396216101
  Cl         -2.08498806907581      1.85329004221526      1.23553599210775
  C           0.57200193027685     -0.42268878665355      0.96945928267688
  C          -0.13335064522392     -1.46349784162344      0.35538152758118
  C          -1.54789739310981     -1.38569219254930      0.32389028138146
  O          -1.86176151635292     -0.01337282480070     -0.56558006638475
  C           1.99528735406828     -0.47767207335717      0.98762004966366
  H           0.16040046926740      0.01425899617658      1.87729691244467
  H           0.37367718015874     -2.07754652079774     -0.37339128646388
  H          -2.05497754456551     -1.10804806747618      1.24437486601042
  H          -2.07089010145398     -2.14258895714647     -0.24523024201599
  F           2.14222339278951      1.24008456788179     -1.33494496475660
  F           0.74173235144671     -0.28042033917980     -1.97004924038051
  H           0.42694780976160      1.65540115960261     -2.23624422762414
  N           3.13587040826044     -0.53203059018247      1.04750426908190
