18
Coordinates from ORCA-job NEB_product E -38.975157737140
  C           2.25926238026295     -1.05389169662383      1.58608446651579
  C           1.25892847334725      0.03888641083693      1.87533859221485
  C           2.61503628865147     -1.14717386839823      0.09959541382513
  H           3.17841686803927     -0.79872113625877      2.13002391905333
  Cl         -0.08442356252509      0.08392536922986      0.73973027590170
  C           1.69996016952142     -2.38881950193694      2.16149831299987
  C           0.65002977105593     -3.03616127228443      1.29580482339480
  C          -0.61741077062926     -3.13340124873838      1.64830442110442
  O           1.28977689106123      0.78213616182483      2.79559804290354
  C           2.78726872260255     -3.33025604434077      2.35446617405485
  H           1.27937679735429     -2.17235103001376      3.15229717273566
  H           1.00839493953437     -3.46041078728240      0.36857563205214
  H          -0.98598645733163     -2.73230225530088      2.57848218346035
  H          -1.34159753959394     -3.61613990425566      1.01608790434944
  F           3.20248816040674      0.00606031658861     -0.29300312715649
  F           3.51764267456397     -2.12663844105640     -0.11371581186282
  H           1.75074616030675     -1.32603357428539     -0.55653177146425
  N           3.61709003337175     -4.09800749770437      2.50886337591770
