18
Coordinates from ORCA-job NEB_reactant E -38.964502422210
  C           1.99765112192410     -0.49722839841829     -0.46507948739596
  C           1.97044706740508     -1.54146232363279      0.36368448840618
  C           0.75888967799157      0.10013274158023     -1.04571084608908
  H           2.92857973915868     -0.04256116894794     -0.75550772929618
  Cl          3.45552296559667     -2.16811199979535      0.99483829388525
  C           1.91111775500781     -3.46244270933942      3.93194305958908
  C           1.26916444334330     -2.70320214232579      3.04697348065925
  C           0.84787927557113     -3.18055371277023      1.69284005246225
  O           0.83166696365793     -2.14148697425234      0.72401360029216
  C           2.26653968318473     -2.99114438028800      5.21128746794013
  H           2.19332053404171     -4.48464139192914      3.71459022805096
  H           1.00153044224325     -1.68192965318646      3.28435316797332
  H          -0.19563929897564     -3.51462565608864      1.72801240586677
  H           1.47408721557716     -4.01406143842779      1.35325775957144
  F           0.67150263766184      1.42147221481189     -0.74066388853706
  F           0.78351793248550      0.04338723563063     -2.40333407732064
  H          -0.16229232968354     -0.39083754780735     -0.70236701863300
  N           2.56511417380872     -2.61650269481319      6.25236904257512
