20
Coordinates from ORCA-job NEB_product E -33.409300097490
  C           1.44032871858237     -1.49886686538901     -1.82834709608546
  C           1.10408128523911     -1.60141120343789     -0.36715436532031
  C           1.28739161411173     -0.04942613712262     -2.28983738054502
  H           2.47928911271831     -1.80634071514222     -1.97935252080157
  Cl          1.84894896621013     -3.02209064255414      0.37940432658133
  C           0.52121141848134     -2.49422108316838     -2.59160757314686
  C          -0.91071393992343     -2.04667134283295     -2.52931661518461
  C          -1.82776615949571     -2.61584879663923     -1.77092782763539
  O           0.40035802298510     -0.90014190550252      0.27492626963569
  C           0.97702503285181     -2.67383229035790     -4.03910056278721
  H           0.61285880256739     -3.45931778737559     -2.08248887309089
  H          -1.16654658201335     -1.20853028524042     -3.16295223244449
  H          -1.59746049560680     -3.45418068907586     -1.13394145607885
  H          -2.84594682817867     -2.26847540654598     -1.75049437140752
  F           2.38009255179180      0.67382205136556     -1.88275389598368
  H           0.40690944654104      0.42136685855419     -1.84331481640425
  H           1.25834344193312      0.02621204256897     -3.37985186628687
  H           0.86119043984597     -1.75783639183209     -4.61239070127111
  H           0.37257383969147     -3.44412637517651     -4.51189391268032
  H           2.01893131166729     -2.98158303509544     -4.07880452906262
