27
Coordinates from ORCA-job NEB_product E -39.724715236200
  C           2.75302600458442      1.23314563447102      0.22164163134888
  C           1.43565504475416      1.04292230761161     -0.53692373604250
  O           2.69752776489750      0.67488975098121      1.50852820741989
  H           3.57187832167436      0.76731179763324     -0.35775349752783
  C           1.62686480717930      0.91248629922140     -2.04516776624904
  C           3.00219811752124      2.76052562111202      0.31665500003069
  C           1.95753233214525      3.39438491397881      1.18701249793572
  C           1.26867894990506      4.46505039239729      0.84310171688867
  O           0.36324324905878      1.00166350727752     -0.00623851214719
  C           4.42899714425118      3.08698456849990      0.79891570530478
  H           2.90985965105713      3.16199646327523     -0.69998240553240
  H           1.79361928736016      2.90207542604380      2.13269856206325
  H           1.41324184365276      4.95800738635379     -0.10548400534319
  H           0.52947547688581      4.89768228897220      1.49442918972050
  C           2.59523987755732     -0.72707806651676      1.52172946637231
  H           3.43265741874611     -1.18909627378201      0.98163742406075
  H           1.65366703637395     -1.07230106968893      1.08297489150542
  H           2.63206240653884     -1.02253997845445      2.56817829701118
  F           0.44301882298104      1.01560601040560     -2.71440614252250
  H           2.04529846672897     -0.07605616748915     -2.27372918529206
  H           2.29342701323513      1.69230471968467     -2.42849089955895
  C           4.66922478496877      2.85028995037959      2.28434598374587
  H           4.61689481673046      4.13958196522846      0.57348753146405
  H           5.13639007880025      2.49222330880639      0.21490518300071
  H           4.07773586272277      3.54018982155851      2.87986496843737
  H           5.72006940720793      3.01077599643400      2.51626118309808
  H           4.39851601248134      1.83617342560506      2.55910871080751
