27
Coordinates from ORCA-job NEB_reactant E -39.727260552950
  C           1.17277704184365      0.13032564538274     -0.18635062804464
  C           1.22156569802094      1.09269360401653     -1.10704015331691
  O           1.10881215218797      0.31840143308599      1.17452380382950
  H           1.17150467212333     -0.89914661915672     -0.51907514510119
  C           1.23164437054649      0.75836082410153     -2.57967793558480
  C           3.81908243233880      3.87693433329835      0.88318003055204
  C           3.00487027423060      2.86832017461399      0.62387257258017
  C           1.55013996345568      3.01608944045501      0.29507557463356
  O           1.21995924595185      2.45392063794304     -0.96893893923595
  C           5.26486597961483      3.73641372887612      1.23747823706720
  H           3.44040279508794      4.89139633120179      0.87658111684103
  H           3.37238234096517      1.85123991656471      0.62739472913870
  H           1.28238024840584      4.07153252874491      0.20120828010209
  H           0.94249746665533      2.55339340751594      1.08085797863689
  C           1.44731205862454     -0.81559563221622      1.93463968001643
  H           2.49908805768091     -1.09061685220410      1.79789837320438
  H           0.81881839305282     -1.67293380635559      1.67065873923335
  H           1.27713909020996     -0.54768273538113      2.97596055131448
  F           1.14345810141849     -0.58733769215522     -2.81031310669097
  H           2.16250579585407      1.10644675679195     -3.04267197190362
  H           0.37978354652774      1.23317003815999     -3.07931726765757
  C           5.54448260771400      4.29220932359884      2.63383529681288
  H           5.86591201132911      4.28851279809025      0.50921264915540
  H           5.55791086773075      2.68606099163456      1.19327261723575
  H           5.27190224024046      5.34383872784769      2.68722374457567
  H           6.59998784976109      4.19652116729985      2.87735593328049
  H           4.96591469842765      3.74963152824517      3.37795523932565
