19
Coordinates from ORCA-job NEB_reactant E -33.823774959540
  C           1.21858485248310      0.04554681755741      0.11330323776137
  C           1.44708850947824      1.34434659207809     -0.09924765321536
  N           1.11511135649020     -0.53748010076037      1.36443046408399
  H           1.17089263108447     -0.62774677936962     -0.72808464880402
  C           1.60036301207724      1.95421006977788     -1.46804361235705
  C           4.25310534839396      4.09499041464066      0.85300767710534
  C           3.86958625734900      2.83340252724134      0.82233054426358
  C           2.73785587601922      2.31063510871561      1.65525271060797
  O           1.50448402330201      2.26903701382492      0.94200028810052
  F           5.24788919823316      4.55283116679785      0.07810261534434
  H           3.84043353345776      4.86975745863306      1.48288253235441
  H           4.35119434571835      2.13940090706643      0.14889798646655
  H           2.54194223926716      2.97876515701882      2.49721957670330
  H           2.99078299327829      1.30968099452008      2.02696145888847
  H           0.86433567320667      0.11625457455237      2.09362264356634
  H           0.56738564307266     -1.38329770677456      1.39176399779883
  F           1.30592283116148      1.05145980468172     -2.45683580209616
  H           2.62605326785039      2.30198892762851     -1.64912893770187
  H           0.91178840807664      2.80031705216981     -1.58053507887056
