19
Coordinates from ORCA-job P E -32.902658576800
  C          -1.25811903366438      0.70298496080057     -2.19264618267149
  C          -0.59359785564520     -1.68223097025578     -0.50792726784752
  C          -1.17624974880063     -1.76864207171846     -1.88502820928865
  C          -1.46427351984907     -0.72120037155970     -2.63769681781744
  C          -1.01463498554697      0.80433438151253     -0.67780463627805
  C          -0.06136148617110     -0.28305443361060     -0.20212290000376
  H          -1.35740098762075     -2.76789389288057     -2.25182764853492
  H          -1.87003126074495     -0.84473550204179     -3.63091594275691
  C          -2.42021593264888      1.48728797226168     -2.54856066826042
  H          -1.35808199721795     -1.95099401981667      0.22647672271055
  H          -0.40139063670560      1.12959800894223     -2.73428258684516
  H           0.22053600374650     -2.40512197816215     -0.40683746376085
  H          -1.96131410831620      0.67678472938355     -0.14837167022536
  H           0.11576540302692     -0.18547656532749      0.87590616902305
  H          -0.61795864413060      1.79227463563979     -0.43757112594877
  N           1.28744588831254     -0.12460645718831     -0.82458455717527
  N          -3.35125898981826      2.09142123855064     -2.81932609196636
  O           2.06718694262858     -1.03021947922775     -0.66340839722882
  O           1.52205494916600      0.89921981469829     -1.41680072512388
