20
Coordinates from ORCA-job NEB E -42.055320152800
  C          -0.88176181216504     -0.27465564295682      0.16523798359385
  C           0.04377566708107      0.26170303080451     -0.90180065419023
  N          -1.57678186992417      0.73939789178243      0.93901062424637
  H          -1.65943365111265     -0.93169855886043     -0.26035046693075
  C          -0.66300971421964      0.68912984907447     -2.15776954689052
  C           0.07246322272611     -0.96569799057375      1.17022849637852
  C           1.31901341692593     -0.14789544853920      1.10296488967120
  C           2.12386555433470     -0.29063778074029     -0.11879666492413
  O           1.27390696480437     -0.26260781546864     -1.22750154958436
  O          -0.46523951025494     -1.07790813751987      2.44576935379944
  H           0.28158810412745     -1.98623731880775      0.80898533648171
  H           1.77879306475188      0.17990826224776      2.01916234016884
  H           2.70812132909239     -1.22207705915610     -0.14432728168537
  H           2.83429965937151      0.53764357504165     -0.23399781417327
  H          -0.92012979702195      1.46378796205550      1.22054747280174
  H          -2.31757307881114      1.17154055518714      0.40153512496617
  F           0.15105238495832      1.23650991289183     -3.06167631472399
  F          -1.31711449011060     -0.31800974460023     -2.79065952850310
  F          -1.61831639151603      1.60691857452946     -1.89171588703428
  H          -1.16751905303755     -0.40911411639166      2.51515408653215
