20
Coordinates from ORCA-job NEB_reactant E -42.131051265380
  C           1.02612476298816     -0.03132986268587     -0.11518228111576
  C           1.67435581768619     -1.19689298172267     -0.28157340367138
  N           0.79012645291324      0.53440641504208      1.10452791405882
  H           0.69268408810065      0.52465369066744     -0.97763331068703
  C           2.00420109039912     -1.70785993066105     -1.65184484353615
  C           3.93716888028164     -4.25610824535544      2.36337694769995
  C           3.66609388297295     -2.96908748925451      2.19357512405572
  C           3.41970312871813     -2.35579390523482      0.85620749109638
  O           2.03754417584325     -1.97713277102123      0.79568401432741
  O           4.16394651847997     -4.86931774840208      3.54265746377118
  H           4.02482436493778     -4.94641074922671      1.53695195037933
  H           3.57195483742331     -2.30733688339701      3.04418104417683
  H           3.65130800154321     -3.07585008012039      0.06336103659435
  H           4.04263164829480     -1.46084001962553      0.71966288672685
  H           0.96026422417278     -0.07576581810497      1.88968128062097
  H          -0.00996832979826      1.13802713473581      1.18827092734807
  F           3.27765995879345     -1.43613576972949     -2.03457017195726
  F           1.87209189374561     -3.03783330898337     -1.76176396131305
  F           1.22499042143862     -1.16278272977469     -2.60101009477716
  H           4.06879418106543     -4.23840894714553      4.26813998620190
