18
Coordinates from ORCA-job NEB_reactant E -29.761733870080
  C           1.75885217953359     -0.08130170024033     -0.07372245182093
  C           1.45258763002531     -0.53493336629145     -1.29897561828357
  I           1.88298067024280      1.86914600698625      0.70070173959974
  H           1.97585682110490     -0.81353466929019      0.68588132259740
  C           1.46866390192442     -1.96599223586623     -1.38511108922116
  C           2.97977008478557      2.54056725726028     -3.99042621547529
  C           2.56610198634185      1.90350867091362     -2.90804545371769
  C           1.16379461624827      1.41313134942097     -2.71251232150521
  O           1.11018400826341      0.01082530662099     -2.47643487810926
  C           4.36491704077453      3.04796116299266     -4.19375928582011
  H           2.28580047829912      2.73605505826208     -4.79817848349844
  H           3.25759016276806      1.69781945034718     -2.10211402458158
  H           0.58526956653084      1.54539771454640     -3.63046371180555
  H           0.66101527442435      1.95788984184590     -1.90565835226812
  N           1.48748991586307     -3.10906469897581     -1.43449530482332
  H           4.99885032825765      2.81304133951260     -3.34287705670033
  H           4.34951929539830      4.12807945418293     -4.33529324943910
  H           4.79655603921398      2.60560405777214     -5.09091556512747
