18
Coordinates from ORCA-job NEB E -38.226101833770
  C           0.44330221898774      0.35826451509884      1.02377194887970
  C          -0.73396614142171     -0.38821818278320      1.34784701576117
  C           0.27528758012638      1.76902651722157      0.85233017725652
  H           1.33168981477528      0.11203126259892      1.60587650202069
  C          -0.60121369241877     -1.52265078597417      2.17893866427959
  C           0.72833818406133     -0.23283634682177     -0.69224219472098
  C          -0.46280317911400      0.09811386944440     -1.36478425321806
  C          -1.68812526726485     -0.47953598471001     -0.87448347256337
  O          -1.82768499197015     -0.22329888842437      0.63599108493014
  N           1.94420837694545      0.46418890153981     -1.14471763125418
  H           0.96938707341813     -1.27378545309127     -0.48346989037938
  H          -0.48757471634304      1.04401880042034     -1.88791586475892
  H          -1.72577267952879     -1.57006254377394     -0.92167878777911
  H          -2.59002945419495     -0.04278645676980     -1.29381764512842
  N           0.11561261613991      2.89572856331866      0.75553198264818
  N          -0.48930564593086     -2.43768356020995      2.86420732797266
  O           2.98554231535537     -0.10380353820569     -0.92228223388190
  O           1.81310758837754      1.53328931112164     -1.67910273006433
