18
Coordinates from ORCA-job NEB_product E -38.259793285020
  C           2.44639013304492     -0.64464545299193     -1.50239825822871
  C           2.56261759355116     -2.04669754451389     -0.88740073191865
  C           1.29240046571713      0.01817079163466     -0.93337911977352
  H           3.34693697540589     -0.07436123644012     -1.23359993314120
  C           2.83244131817367     -1.98777784522206      0.53693274008468
  C           2.30939859921488     -0.73003828483298     -3.02696799748902
  C           2.12312955617094      0.62358585145376     -3.65244450436338
  C           1.19421791246064      0.88253641410349     -4.55280333407180
  O           2.43775369744928     -3.05847530644060     -1.51521183244575
  N           3.57819670472746     -1.29877351602686     -3.60150972203576
  H           1.50261087834746     -1.40852092374131     -3.32172913456689
  H           2.82402814003949      1.38176609537732     -3.32988330106958
  H           0.49774652290478      0.13231461694001     -4.88755134715052
  H           1.09357867582220      1.86101215617080     -4.98744168278358
  N           0.36730415265052      0.52675100269759     -0.50102081451128
  N           3.05237927848761     -1.91275217991549      1.65641223239973
  O           4.58589054908079     -1.15146329543282     -2.95654409918986
  O           3.48687884675117     -1.81353134281957     -4.68025915974489
