22
Coordinates from ORCA-job NEB E -39.228671298410
  C           0.26590511548101     -0.92139490106305      0.44913017070856
  C          -1.07711122439507     -0.93450986993603     -0.08068167170914
  N           0.45279932252349     -0.81396655627660      1.82938618007434
  H           0.95003553452872     -1.63374078673314     -0.00592142332510
  C          -1.42974099141279     -1.61998563565501     -1.26657380098869
  C           0.86942002985661      0.69355370964005     -0.19392720155671
  C          -0.08429985509689      1.58722669212811      0.30361281245047
  C          -1.47408835735809      1.41185707963703     -0.08620958068466
  O          -1.89513154830862      0.03089626521226      0.35098021384291
  C           2.29994018661928      0.83899448026748      0.25883184786715
  H           0.78317925802188      0.45654335791150     -1.25438830710499
  H           0.13587173751744      2.15339219324399      1.19696140353070
  H          -1.62950829811342      1.42582745968447     -1.16864442181854
  H          -2.17582014050345      2.07364634789937      0.41438485603454
  H          -0.36524128841192     -0.49371939835085      2.32848416099101
  H           0.91741865202415     -1.59073251446549      2.26859265451969
  Br         -0.59384494177121     -3.29602537532390     -1.58975211707374
  Br         -3.29450301178139     -1.66132392401651     -1.62661462752440
  Br         -0.63536660859233     -0.35548171243688     -3.21559293872971
  H           2.88123767822366     -0.04023035803640     -0.00428368980612
  H           2.35520971366841      0.99120786186482      1.33294603675968
  H           2.74363903728053      1.69796558480477     -0.24072055645725
