22
Coordinates from ORCA-job NEB_reactant E -39.260277105910
  C           1.68844143936458     -0.14481781627713      0.03723934234506
  C           1.68654536636344      0.60920001196610     -1.07711664836784
  N           1.19174076179157      0.26589089762734      1.24077160971469
  H           2.15718698572285     -1.11872846919042      0.02699649900514
  C           2.26743082087544      0.10562661186804     -2.34905021066102
  C           3.61089187233590      3.69486978114366     -2.16008254383898
  C           3.25877488764712      3.02054849818958     -1.07618961490312
  C           1.85016450801425      2.94508140037189     -0.57073011072366
  O           1.10476469385486      1.85528505989566     -1.14433397522922
  C           4.98761461753826      3.73206141286332     -2.72295165287582
  H           2.86473473752232      4.26045047823630     -2.70436149604725
  H           3.99122874045571      2.44234429776680     -0.52748243887618
  H           1.27618529723052      3.82528603663500     -0.86761416799800
  H           1.84651005875338      2.85205551128285      0.52254256114152
  H           0.54119295651775      1.03627355889456      1.20732411941307
  H           0.97371199187609     -0.45031996282874      1.91239318420977
  Br          1.63175323720937     -1.70165364006398     -2.78885025333876
  Br          1.82196297137210      1.25879928095576     -3.82165471200516
  Br          4.26098017864398     -0.04011245534423     -2.27588952095726
  H           4.97824003661042      3.34730629606576     -3.74229949993925
  H           5.67352000950895      3.13484606122971     -2.12757344664135
  H           5.34822383079111      4.75900714871219     -2.76368702342637
