22
Coordinates from ORCA-job NEB_product E -39.256291981920
  C           3.03165735576171      1.03839501515179     -0.95714395677015
  C           1.60110621435245      0.69608495968822     -1.30915373600747
  N           3.28585215617650      0.83883502336623      0.45133817769341
  H           3.73847522960480      0.42373726646368     -1.52494814460060
  C           1.37485592692620     -0.14758299295219     -2.55975555749875
  C           3.26608998025736      2.53286629012482     -1.34114231261254
  C           2.32978422704875      3.42803482564767     -0.58753990555592
  C           1.26885985139585      4.00350508093083     -1.12175691613244
  O           0.65508014113297      0.99566005949760     -0.63487888769149
  C           4.72125559147533      2.88904433471953     -1.04839962044450
  H           3.07643953674627      2.64073699705533     -2.41402028404237
  H           2.57628584913942      3.58775016516169      0.45275057463210
  H           1.00627950164556      3.86725275769236     -2.15911990561684
  H           0.61648639735804      4.63901692308868     -0.54892843522483
  H           2.57960888855553      1.31190741679086      1.00539798591489
  H           3.27322775949828     -0.14620095696514      0.69077081020572
  Br          1.97031709283897     -1.94735181234799     -2.04900372758909
  Br         -0.50969899303909     -0.19221912759812     -3.00804587217486
  Br          2.39621493772733      0.43693288121879     -4.09398219991981
  H           5.38926123626150      2.30719077041969     -1.67821336030543
  H           4.95014254969483      2.67921316119552     -0.00762191104785
  H           4.88621856944144      3.94479096165015     -1.24680281521119
