20
Coordinates from ORCA-job NEB E -52.890970402850
  C           0.82997797698375      0.42021356798482     -0.29855322776952
  C          -0.23557584154597      0.90612683974055      0.48784166627940
  C           0.97352323984280      0.86241321027008     -1.73060380554813
  H           1.80315166541814      0.45724065616841      0.18830795941423
  C           0.07718943733697      1.20740396648924      1.95113812615643
  C           0.36691310449033     -1.50784892221604     -0.46051869152624
  C          -0.83882705962154     -1.69835524242146      0.21172117618341
  C          -1.92266155599795     -0.88614811516803     -0.18366755057265
  O          -1.45611497928994      0.70781494549088      0.18078932498546
  Br          1.89829238072066     -2.44569899149351      0.16777334493963
  H           0.35122484004178     -1.48413320108394     -1.54240284330078
  H          -0.81318249200143     -2.07131148367186      1.22653217030437
  H          -2.83653474739270     -0.96427855217168      0.39101072142207
  H          -2.08713730720816     -0.75623488817318     -1.24674215112040
  Cl         -0.50808811685794      0.77672508229008     -2.68895134162206
  Cl          1.49514630968059      2.58350048803080     -1.69148880791461
  Cl          2.25345155361367     -0.05907413234739     -2.56645313373476
  Cl          0.64150101270497     -0.27769467514210      2.78046030657536
  Cl          1.36919819026689      2.42235696458838      2.04913056985331
  Cl         -1.36144761118492      1.80698248283593      2.77467618699548
