20
Coordinates from ORCA-job NEB_product E -52.934953455710
  C           2.10273703024541     -1.86355738908936      0.40044176028778
  C           1.19576160387056     -1.31180432324307      1.49691189097126
  C           2.08789626606897     -0.96201634985816     -0.83765552001971
  H           3.13694575664443     -1.89370784726437      0.75810725931559
  C           1.85420055806787     -0.90285954012222      2.82995934999053
  C           1.66303042079615     -3.30594846503407      0.08304840099114
  C           0.30983744382329     -3.46879628395820     -0.50976019263085
  C           0.10120299708314     -4.15123793773372     -1.62173541338473
  O           0.01728635520267     -1.17503145804828      1.36799225787382
  Br          1.70919127924842     -4.28368145499407      1.81034359759974
  H           2.42207563339208     -3.79039833831138     -0.53415200974328
  H          -0.50748150070504     -3.03080560498959      0.04479053041206
  H          -0.88773886666190     -4.27466742964392     -2.02552980486366
  H           0.90821295814135     -4.60315111710173     -2.17539371208363
  Cl          0.46670128792212     -0.63882715370716     -1.46179595598354
  Cl          2.85485022747910      0.59519208392898     -0.42287598245856
  Cl          3.05278462914864     -1.71665371747994     -2.13189220382525
  Cl          3.47899785433790     -1.52337893754559      3.11952330026030
  Cl          1.92433096751781      0.88234234673353      2.74324230530837
  Cl          0.79497709837705     -1.39011108253767      4.16323014198261
