16
Coordinates from ORCA-job NEB E -31.115192948480
  C           1.13348218010050      0.72421638419626     -0.26083046644320
  C           0.76652373222930      0.99169735323701      1.05344087839887
  O           0.64317648080862      1.51761843210537     -1.25637783963139
  H           2.14419090535497      0.34001142299477     -0.41860669798534
  F           1.59961343921933      0.37149035983379      1.97782011623376
  C          -0.02392670979379     -0.94508494290191     -0.49513609001013
  C          -1.26714786815907     -0.43749964908172     -0.13117392719693
  C          -1.48638964394551     -0.05006218385530      1.19854333695553
  O          -0.38004625159100      1.28287334542801      1.45060708656669
  O           0.20660450308892     -1.19538526275067     -1.82470788122206
  H           0.51953567414248     -1.57044042741487      0.20688571232129
  H          -1.86498955531075      0.00204050923804     -0.91528986790932
  H          -1.10141387024467     -0.68502782495387      1.98718182035400
  H          -2.42192017021692      0.43232145028707      1.43647574389579
  H           0.56633620710124      0.99712882144067     -2.07092376824613
  H           0.96637094721635     -1.77589778780266     -1.93790815608144
