19
Coordinates from ORCA-job NEB E -40.094321762220
  C           0.53462139448918      0.26879460559134      1.09969207881058
  C          -0.76194860243067     -0.10423978579205      0.67263377376920
  N           0.79397486333448      1.59434960997438      1.36038918638526
  H           1.12864057325012     -0.44135993084696      1.66256113275833
  C          -1.23188481628727     -1.53267286029483      0.86814680499262
  C           1.41275308531116      0.09764542428255     -0.79254612697478
  C           0.39963224073269     -0.13310082152209     -1.72865048147472
  C          -0.61797106689352      0.78478954103173     -1.85772002496773
  O          -1.44064220251754      0.62444566917049     -0.08574746529404
  Cl          2.67346951872531     -1.07589126024372     -0.61198392117831
  H           1.78194784633637      1.10865115757081     -0.67842411207481
  H           0.24053480405922     -1.14825283187570     -2.07076065398955
  H          -1.47050205547465      0.56235730529434     -2.47702818034616
  H          -0.42956730543453      1.82896234510070     -1.67028847315361
  H           0.03283760457357      2.23286686583426      1.19520964150914
  H           1.42063749943093      1.81860854267728      2.11086880817204
  Br         -1.93179193507964     -1.66675172450432      2.70566903642385
  Br         -2.66540761198201     -1.91030737711997     -0.37229173580870
  Br          0.13066616585679     -2.90889447432823      0.67027071244140
