19
Coordinates from ORCA-job NEB_reactant E -40.137595488710
  C           1.99249784899921     -0.17960349824898      0.00768643531484
  C           1.51420284027519     -0.97818010747636     -0.96527947765306
  N           2.15780576036622      1.16703447074188     -0.12537769083058
  H           2.32644192331019     -0.60881426141147      0.94140084849659
  C           1.39613286038035     -2.44623675051066     -0.77352118091486
  C           3.82563891593526     -1.80274474071926     -3.70657438801911
  C           2.59215307294358     -1.34891729685157     -3.86050990616688
  C           2.07850697792890     -0.14523044190539     -3.12949108973104
  O           1.06721005975251     -0.47615618632859     -2.17000264932191
  Cl          4.41979961939661     -3.18824558312075     -4.52163286353406
  H           4.55604261722416     -1.33099278340739     -3.06469936901345
  H           1.88570246789508     -1.85646483312431     -4.50008908273146
  H           1.57125399210161      0.52519192904067     -3.82861184546258
  H           2.90283846105790      0.38372387221849     -2.63759637281202
  H           1.63995157980340      1.60226297478260     -0.87420466363753
  H           2.22927607134464      1.70662984066125      0.72027832870317
  Br          0.53906834926373     -2.90207737758342      0.93247654050961
  Br          0.36684550724923     -3.25604232301202     -2.18179076987300
  Br          3.19183107477223     -3.34283690374472     -0.72906080332263
