23
Coordinates from ORCA-job NEB E -51.730941520740
  C           0.19858814859410     -0.06704396228244     -0.79390884050980
  C          -1.17863296229942      0.30691544938043     -0.72564277732402
  N           0.42216449411523     -1.40140981820989     -1.31219051358480
  H           0.90526490581024      0.62507246792743     -1.23892622845701
  O          -1.61274161588342      1.54901421403921     -1.00756954996795
  C           0.59636547403567     -0.22680007149891      1.04518403459360
  C          -0.31125115365431     -1.20615552459124      1.48694159839676
  C          -1.69004890340444     -0.87892955937682      1.38463260736353
  O          -2.03136591811469     -0.46669343439064     -0.18274411668786
  C           2.07583386951378     -0.47024384565484      1.20937927195257
  H           0.36536758475752      0.80057256948319      1.32093140565505
  H          -0.01720843796637     -2.24220227648202      1.48855513025712
  H          -2.01012894029036      0.05204135877943      1.84439309753750
  H          -2.38519029427795     -1.69150772357739      1.54937443431795
  O           1.25808584054659     -1.48918734647009     -2.18787719782241
  O          -0.24576006904558     -2.30727745835169     -0.87586123486613
  C          -0.75378078869412      2.49069714711035     -1.62201727786933
  H          -1.38476716846943      3.34658861387528     -1.85346043059805
  H          -0.32538552385816      2.09603922795853     -2.54660585832776
  H           0.04677170958010      2.80216294983381     -0.94620578013339
  Cl          3.03023148441267      0.76534526880980      0.34862337770506
  Cl          2.45319933711133     -0.31353695136725      2.95255538533958
  Cl          2.59438892748102     -2.07346129494424      0.66243946302977
