23
Coordinates from ORCA-job NEB_product E -51.789773429420
  C           2.78910586355539      0.46979123298742      1.54663488646909
  C           2.20981128061434      1.89391284720250      1.41240599049842
  N           1.70873779018186     -0.42354307446842      1.02603380762416
  H           3.65441968965757      0.36348758186484      0.88738755383578
  O           2.82714291489294      2.54541627230191      0.44234492711581
  C           3.09702052874158      0.11936820389879      3.00922250631040
  C           3.30378670403216     -1.36593877938900      3.16817866695240
  C           2.58130337399668     -2.11325455441039      3.97898915104110
  O           1.29617469620430      2.29873807774835      2.07079697556112
  C           4.34445664201053      0.86216633622043      3.49574722297750
  H           2.24773415918775      0.44133804961518      3.62393661603317
  H           4.09443567839367     -1.78923983434885      2.56509687161427
  H           1.78594564867982     -1.70000181177098      4.57539794340317
  H           2.75011375398706     -3.17193523657809      4.06653307161039
  O           1.80037251227935     -0.74015118616801     -0.13109905164239
  O           0.82689889063086     -0.72613865678284      1.78008108767194
  C           2.38289034197245      3.87658776409345      0.19195227153488
  H           2.93761573851936      4.21976883577558     -0.67661804881507
  H           2.59279712749383      4.50710060733316      1.05755023600484
  H           1.30970379595784      3.88509481374437     -0.00431628869285
  Cl          4.13975296519514      2.62580112625363      3.39723910076234
  Cl          4.65803194703371      0.43460301564671      5.19260410269277
  Cl          5.77654795678181      0.42452836923028      2.53280039943676
