23
Coordinates from ORCA-job NEB_reactant E -51.768085150250
  C           2.07572047279689     -0.09874468056575      0.13609286085694
  C           1.76303778092939      1.08472874113810      0.74562582958324
  N           1.95454417862656     -1.40531756906228      0.60148603051562
  H           2.40606010976406     -0.03301398774109     -0.88890540467909
  O           1.76086571964150      2.14064058600018     -0.07217476779611
  C           4.08658383733783      0.55656693284660      4.34433107988586
  C           3.41853949626922      0.54759969483940      3.20100192790132
  C           1.92910552689914      0.60659157978508      3.11184668368991
  O           1.49393208506875      1.39585334761387      2.00683951001935
  C           5.56254971693892      0.46244729277137      4.47904097081977
  H           3.57251932250557      0.62004549627788      5.29303608985116
  H           3.94355735151656      0.47817950609004      2.25785107755627
  H           1.49180460734602      1.09758687835137      3.98257947759487
  H           1.52709556794497     -0.41526132794674      3.02662887447919
  O           2.50412280902099     -2.27637990349240     -0.04653547483059
  O           1.28001779810448     -1.63353449447988      1.60248030497534
  C           1.54719054915521      3.43078566798458      0.48304644905695
  H           1.64414528825458      4.12005304054957     -0.35217960640204
  H           2.29294692992736      3.65780226023363      1.24764536436974
  H           0.54947868008023      3.50648852653606      0.91899838330345
  Cl          6.15546141804527      1.88990601365442      5.38140597546297
  Cl          5.97808555233920     -1.00146123962080      5.42195878022212
  Cl          6.41993520148728      0.39133763823679      2.93459958356374
