20
Coordinates from ORCA-job NEB E -40.129237709250
  C           0.29872179655912      0.48281000544711     -1.00730078400528
  C          -1.03690450152637      0.52170885665943     -0.43659616188587
  N           0.48045999494525     -0.28741398019273     -2.13674176095802
  H           0.79341730474168      1.44891771210795     -1.09416152363316
  C          -1.59663654312111      1.66349251760376      0.08602205806830
  C           1.23545828287363     -0.31460008910806      0.39010843843612
  C           0.53054349128572     -1.48690907645685      0.64598871705362
  C          -0.90465479962097     -1.38651245154686      0.94192587275300
  O          -1.60495299671611     -0.66643686428780     -0.13048273404490
  O           2.53354999923397     -0.44761604081884     -0.03612460156457
  H           1.03516664655980      0.51433361348423      1.09313039852067
  H           0.97336097835400     -2.43990841917644      0.40319096426409
  H          -1.08009515621453     -0.81134227132596      1.86194973421953
  H          -1.40205395481871     -2.35202024610739      1.00045000773183
  H          -0.05672852505492     -1.14420029543049     -2.15595454828931
  H           1.43914688598369     -0.41083605734966     -2.42809382112447
  Br         -1.09431292581467      3.37088631042553     -0.51040954978300
  Br         -3.31688876159360      1.56347519334457      0.82347908521813
  Br         -0.26085730015249      1.82936443779214      2.53389626344324
  H           3.03426008409663      0.35280714493634      0.15572394558005
