22
Coordinates from ORCA-job NEB_product E -38.868695585810
  C           3.12705742531184     -1.91497851131531      0.58898743844609
  C           1.70729412835223     -1.73532730038112      0.96856471362110
  I           3.32385738339474     -0.12688150179406     -0.65351692211114
  H           3.78767685834252     -1.73811914128175      1.43885270563563
  N           1.51609057192999     -0.67560043459522      2.09072706775047
  C           3.41195185673280     -3.24847172142183     -0.10655300266347
  C           2.99875085312425     -3.24684426722170     -1.55212486638263
  C           1.88087637135522     -3.78550453018496     -1.99943107775390
  O           0.72387113231522     -2.25034915587354      0.55385695306866
  C           4.87567172164558     -3.68507004967700      0.07508483303781
  H           2.78264352148296     -3.98304018817651      0.41490078901666
  H           3.68660415730670     -2.76824462041257     -2.23484626109517
  H           1.17584671232447     -4.26822461263851     -1.34319048773038
  H           1.61904435165250     -3.75458941390215     -3.04285646133802
  O           0.37884322314073     -0.40936158417326      2.35753355879422
  O           2.51579144616147     -0.24352354628087      2.61520073329103
  C           5.91984703899477     -2.69474181786268     -0.42754151504942
  H           4.99841793068088     -4.63353123685399     -0.45240579206311
  H           5.05172012927827     -3.87600044271323      1.13705586960853
  H           5.77096339162303     -2.45443545838071     -1.47659072644268
  H           6.90992179541033     -3.13201835396746     -0.32252635125327
  H           5.90495799943950     -1.77044211089154      0.14481880161298
