22
Coordinates from ORCA-job NEB_reactant E -38.866022323060
  C           2.22195028394985     -0.43398521440596      0.40414080525336
  C           1.45961762989025     -1.50920074497211      0.60833761796885
  I           3.32150235414633      0.13869003637413     -1.27141579989393
  H           2.28686202651912      0.28371715329188      1.20681510515864
  N           0.80704717425381     -1.58096127674281      1.93902178878471
  C           3.81259539244349     -3.53589804482228      0.04190280760238
  C           3.23753963443952     -3.23228598584778     -1.11046549747581
  C           1.76983549091701     -2.96130906204367     -1.27732510170980
  O           1.10894383981084     -2.59303265129843     -0.07551616369585
  C           5.26821904724355     -3.79286177098381      0.26558611450295
  H           3.20672272418505     -3.61608777621828      0.93729890848558
  H           3.80248757359445     -3.16496068825386     -2.02682492433547
  H           1.24718547797919     -3.87289436104998     -1.58752728096074
  H           1.60465804709279     -2.19924985941423     -2.04795357477802
  O           0.24265976641556     -2.60933153886179      2.20404905366272
  O           0.89100385565615     -0.61243980677308      2.65904392247667
  C           6.14860603363225     -3.62929606226882     -0.96556794101958
  H           5.37424909079959     -4.80783271756474      0.66142180298249
  H           5.61352090800387     -3.11388007732180      1.05210360926385
  H           5.86282833345069     -4.33530985859743     -1.74132440314465
  H           7.18746183617439     -3.81353052128845     -0.70309863293767
  H           6.07010347940223     -2.61985917093670     -1.36260221619066
