21
Coordinates from ORCA-job NEB_product E -41.291308763090
  C           0.21612075331460      1.34409069842955      1.32183041956389
  C          -0.00008069609804      1.12480846740438     -0.16367336986795
  C           1.60499137624626      0.90754365964029      1.77688006753282
  H          -0.50757489312685      0.70476369584873      1.84605167641460
  H          -1.03103480291051      1.39368461981178     -0.46617028694308
  C          -0.19180863770856      2.79533524533555      1.70366721197987
  C           0.91026152558718      3.79983089570310      1.50254172177151
  C           0.99071245562608      4.58878111608447      0.44827068604398
  O           0.79578590683096      0.71482059420913     -0.94976359516257
  O          -0.64605645714747      2.74445484618604      3.03974512201243
  H          -1.04148377823722      3.07069963171339      1.05024611595713
  H           1.63014369545176      3.85499221728448      2.30593635484912
  H           1.79107643591714      5.29816867515770      0.33370595968862
  H           0.27203769651024      4.54358319425296     -0.35418774985358
  Cl          1.84897711120150      1.23637365256362      3.50139196370813
  Cl          1.74781095893141     -0.85719149544700      1.53632722463611
  Cl          2.90243405933968      1.68939205579976      0.86040781760995
  C          -1.27513142049155      3.92780905020770      3.46756717810160
  H          -2.14632580558494      4.15748868993304      2.84132821771562
  H          -0.59064841637759      4.78184346882413      3.44601314653181
  H          -1.59820706727408      3.74472702105718      4.48968411771000
