22
Coordinates from ORCA-job NEB_product E -58.379485855580
  C           1.87338830818014     -1.81552790343723     -0.37608703934656
  C           2.92159945863155     -1.73850962581325      0.71877993256632
  C           2.44454184085375     -1.15395607783329     -1.64164329352555
  H           1.06428431916710     -1.15441385688812     -0.02784714113446
  N           2.38979318400294     -2.14108114335013      2.12280309809690
  C           1.15652057251936     -3.19828359679016     -0.49046374054759
  C          -0.13057539385852     -3.11418558469360     -1.28028021268595
  C          -1.23560223209103     -2.60728631740081     -0.76682605930432
  O           4.01145195749850     -1.28296944861602      0.68983652221318
  C           1.97900930800551     -4.40125340434644     -0.93280929407642
  H           0.85361462934075     -3.41841553090797      0.54317411728115
  H          -0.12153815702810     -3.51433713964643     -2.28267508909204
  H          -1.27454408268522     -2.21614687991791      0.23708526049744
  H          -2.14636005669353     -2.56621727864998     -1.33587827900959
  Cl          1.31204242537500     -1.23779469901229     -3.00402676435538
  Cl          2.69121260401612      0.58874548959197     -1.27118809253543
  Cl          4.00853648405143     -1.82661161125221     -2.13885310446973
  O           3.22563822204519     -2.29127918238929      2.96202278437793
  O           1.18984359561266     -2.22820294155613      2.24901135155220
  Br          0.92576810545764     -5.99861576667385     -0.48393769994035
  Br          2.36061389377987     -4.53053763002085     -2.82950327493750
  Br          3.66066101381889     -4.51061987039597      0.07870601837577
