22
Coordinates from ORCA-job NEB_reactant E -58.386730031370
  C           2.04044964938288     -0.41088149267920     -0.24525198437993
  C           1.97756816078262     -1.07033256108715      0.91683188319916
  C           1.84280984224304     -0.86618598790527     -1.64419639476308
  H           2.36307025281437      0.62080251152229     -0.15280026314599
  N           2.38856386780589     -0.26784991851900      2.12402786806507
  C           0.47542325307019     -4.51659724090773     -1.26982782692729
  C           1.17906457675289     -4.05983484067024     -0.24617497487368
  C           0.63556091924326     -3.07715008831686      0.74072081309513
  O           1.64941230951733     -2.27905053940495      1.34034878494801
  C           0.94669195929639     -5.47600136107419     -2.28946186042335
  H          -0.53665063465836     -4.17225323774647     -1.44494937339526
  H           2.18710431345152     -4.39523290342878     -0.04585336885082
  H           0.20723438517852     -3.62934051924262      1.58715852204852
  H          -0.14102036713924     -2.44903041633539      0.29624118673239
  Cl          2.87517108064776     -2.27676314973380     -2.01174498667015
  Cl          0.14002662545548     -1.28624937237226     -2.00276539703664
  Cl          2.30304845615943      0.44017873913994     -2.76833277957171
  O           2.16895867153970     -0.77313803896325      3.18868573551577
  O           2.89553952830295      0.80618124106305      1.92860673965993
  Br         -0.25896120354003     -7.03675992515792     -2.33619598704891
  Br          0.86950897927351     -4.60259515912145     -4.05493293390632
  Br          2.75502537441994     -6.12251573905875     -2.02753340227086
