23
Coordinates from ORCA-job NEB E -32.610064369260
  C          -0.75362900045858     -2.24955687814000      0.51925086806629
  C          -0.86144591559538     -1.22746711650367     -0.33044394279073
  C          -1.56499003732799     -2.39666053045460      1.76520731400685
  H          -0.04857081110911     -3.03730401489251      0.29809137961226
  N          -0.02271444894229     -1.05495656920066     -1.44061133434874
  C           0.61570304163848      2.14967237761130     -0.89305851672364
  C           0.07511266120734      1.32167794744968     -0.00790514169499
  C          -1.39659491705493      1.08929560805381      0.07849284616591
  O          -1.81772185919458     -0.25942601449510     -0.17263129721898
  O           1.92150344934400      2.44584490840353     -1.07986775734852
  H           0.00907117355464      2.71759588789008     -1.58677103623315
  H           0.67342037517347      0.75113860069961      0.68480420841226
  H          -1.93036439643634      1.72387590638440     -0.63821055667456
  H          -1.74958326747585      1.33649745956747      1.09075033912084
  H          -2.17444697818398     -1.51127934925432      1.92211421853017
  H          -0.91590865158835     -2.54403595053450      2.62901420727151
  H          -2.22445189471796     -3.26245012310740      1.69437167113291
  H          -0.47204389911426     -0.57166825710216     -2.20576067270730
  H           0.43361773901161     -1.90460925051518     -1.73734041969421
  C           2.85984509579463      1.74928290130588     -0.29312701834952
  H           2.73596030543024      1.98177942408244      0.76924139495546
  H           3.84054030540324      2.08394942234912     -0.62675166818524
  H           2.76769193064197      0.66880361040276     -0.43885908530488
