19
Coordinates from ORCA-job NEB E -33.992814012210
  C           0.50467815422424     -0.05182230860061     -0.28187968208564
  C          -1.12462745030301      2.42409359819155     -0.75379567695701
  O           0.29479482762229     -0.60244079016694     -1.42382570929324
  H           0.38807814527412      1.01335107712897     -0.13906146966241
  Br          1.14720944643480      3.11760516556077     -1.23144818384574
  C           0.83400687440928     -0.90846334810461      0.89043487753441
  C          -0.48720609004529     -1.12086098714385      1.62078421388801
  C          -0.79199207462022     -0.51214565501446      2.74959275660460
  O          -1.81002791006221      3.30405913160863     -0.47428847738712
  C           1.39642641974161     -2.19116477195005      0.51811425038765
  H           1.53261705202597     -0.37939682321062      1.54804893563336
  H          -1.16993098187113     -1.79980719504012      1.13112869752707
  H          -0.11617738403276      0.17055185978736      3.23725002179797
  H          -1.73701578221233     -0.67997699258447      3.23634522143341
  C          -0.09795851503010      0.19565439697544     -2.51464568899245
  H          -0.24818512252725     -0.47041688371190     -3.36029046423356
  H           0.67116034906621      0.94753956841657     -2.72929003158093
  H          -1.00922531774550      0.75539901723706     -2.26189357933708
  N           1.82337535965127     -3.21175805937870      0.23871998856868
