19
Coordinates from ORCA-job NEB_reactant E -34.103706545810
  C           1.05621614474432     -0.29188028699996      0.25257090966909
  C           1.20809138843682      0.43842818915162      1.35538320887709
  O           0.51997023945322     -1.55296870366290      0.22954825284171
  H           1.35008120339278      0.12867225256349     -0.70050033408013
  Br          1.86863969937627      2.20373669848730      1.17893110153814
  C           1.92153603841310     -3.27079465965861      2.41690234484157
  C           1.96950640894503     -1.99912622545779      2.80684462952551
  C           0.75501909471670     -1.16093583001416      3.04727353863116
  O           0.94656204131593      0.18772051357297      2.65902705649254
  C           3.08101826686979     -4.03430925856966      2.18358374610639
  H           0.98143335360510     -3.77913590755224      2.24660916308261
  H           2.91944366041463     -1.50355957042629      2.96356075141920
  H           0.55469473103379     -1.09721688939241      4.12343104960888
  H          -0.11881391523949     -1.58703768303351      2.54164789146333
  C           0.90823797266259     -2.33448833769205     -0.87905823220424
  H           0.29254066124841     -3.23134605629684     -0.85106265199926
  H           1.96483382679146     -2.61490404348244     -0.81419869952404
  H           0.73379128504620     -1.80123996424035     -1.81838587037796
  N           4.01889789877335     -4.66051423729617      1.97649214408842
