19
Coordinates from ORCA-job NEB_product E -34.114898889050
  C           1.60960953993970     -1.01982576931380      1.11663332177633
  C           2.61087006581425      0.09969728444282      1.34863653627796
  O           1.86290756995556     -1.77108250667413     -0.02580525376974
  H           0.60543929783578     -0.56126766800679      1.08834265626711
  Br          4.16252676906439     -0.03995651119161      0.20349658182041
  C           1.67174621253373     -1.94374821905438      2.36846910236212
  C           0.63840825391226     -3.03419222943969      2.26346101178304
  C          -0.32666344060030     -3.20492990551174      3.14542204743247
  O           2.52686842393356      0.96430176797629      2.15343464474472
  C           2.98748967919678     -2.54137399095838      2.47060783849392
  H           1.49726678941409     -1.33112851690624      3.26135528097523
  H           0.74657055626730     -3.67502650160736      1.40044248882862
  H          -0.43285464266510     -2.56958263473306      4.01005323711491
  H          -1.04894119613598     -3.99577198679081      3.04204939284153
  C           1.27747757496177     -1.27110990119902     -1.20864099897025
  H           1.57872682643731     -1.95499485274698     -1.99825524260434
  H           1.63338878813043     -0.26500425214773     -1.44870676053260
  H           0.18452549495473     -1.25808569047069     -1.12679666856553
  N           4.01873743704974     -3.02081791566671      2.56870078372412
