21
Coordinates from ORCA-job NEB_im3 E -38.031268754800
  C           0.89660884772227     -0.16909144080246      1.26007681171567
  C           0.03403838543685     -1.20694191298355      1.17385705238704
  C           0.73743981670643      1.30934264156265      1.46368507057379
  H           1.89868257143127     -0.48375447208647      1.51132989020756
  C           0.18524078090455     -2.36917178609697      1.99193931784511
  C           0.02221954757035     -0.07309939632828     -1.44175435821770
  C          -1.11404486760061      0.45297316149736     -0.92885355337690
  C          -1.97628822582442     -0.51342644873302     -0.22220962450579
  O          -1.15184068341478     -1.45387385886863      0.53307324184444
  C           0.95248440571163      0.66651279011945     -2.30381824411108
  H           0.17232994540352     -1.13099390129143     -1.39791995518394
  H          -1.32681485122283      1.49867853500977     -0.93101961549881
  H          -2.47540825385783     -1.20150532642851     -0.90926353240801
  H          -2.77858044791178      0.01486041986427      0.31359414051894
  H           0.66811290728909      1.95267301331093      0.59286634448049
  H           1.61374239028719      1.63198449798830      2.02367737626689
  H          -0.13151620979268      1.49747919303107      2.09179949642559
  N          -0.03497825029191     -3.19696787651584      2.75257760220511
  F           0.78220393639296      2.00623655775570     -2.22894943190245
  F           2.24657724489767      0.41711638985338     -1.99766427928903
  H           0.77979101016305      0.35096922014230     -3.34702374997694
