21
Coordinates from ORCA-job NEB_im1 E -38.062868346990
  C           0.79634912568344     -0.29172392381077      2.62701276728601
  C          -0.00375083630739     -0.94380845055265      1.76506204275795
  C           1.24297657262819      1.12273574700621      2.49741525159249
  H           1.10971804665567     -0.82150757220496      3.50926557322044
  C          -0.53000090827751     -2.18658129792356      2.14924384561938
  C          -0.18773720605866     -0.12512255246765     -2.43744334615893
  C          -0.93836127263735      0.32118943809814     -1.40565170101644
  C          -1.33230800848358     -0.59634853077500     -0.29623310984256
  O          -0.21553360851279     -0.38667312263850      0.54168036564411
  C           0.36269022304659      0.80841363733578     -3.46175529441835
  H           0.00410867203202     -1.16810432705076     -2.56594930770105
  H          -1.07363300506037      1.37065910027674     -1.24244091522632
  H          -1.42498825468802     -1.63586888637514     -0.63364780295165
  H          -2.27138013760474     -0.29158295454729      0.18338638957749
  H           1.27339296239305      1.47170560075811      1.46881229033743
  H           2.21749084732801      1.25054103270047      2.95931537145887
  H           0.53374628155790      1.74803095277623      3.04475362179259
  N          -0.99482829063847     -3.17684211347108      2.56218093786529
  F          -0.63691042911566      1.33896065083525     -4.21257073310903
  F           0.99827937428034      1.86555745651577     -2.90143822771261
  H           1.07067985177931      0.32637011551464     -4.15099801901512
