21
Coordinates from ORCA-job NEB_reactant E -38.078432356650
  C           1.74645909550464     -0.06256667393655      0.30301785523135
  C           1.12000812820572     -0.51179921329708     -0.79594336505605
  C           2.59332600572752      1.15855864153504      0.33796841801909
  H           1.62858211792646     -0.61965354140909      1.22047748496058
  C           0.33645938465464     -1.69033314754436     -0.70778648499809
  C           0.90663663303987      0.04121487218180     -5.49855409822907
  C           0.71267631457868      0.47440308902697     -4.26514470209133
  C           0.51022134163730     -0.41690013285478     -3.08378913335244
  O           1.22267756461419      0.13891487426305     -1.99600865467722
  C           1.07808053626813      0.94785075616212     -6.67912263375305
  H           0.92472397859699     -1.00915410045739     -5.74977938286554
  H           0.69642735540943      1.53249215411987     -4.04430062387030
  H           0.85444861202142     -1.43835489464357     -3.29604868891317
  H          -0.56553646393319     -0.46202086437177     -2.84791899855061
  H           2.64275802076045      1.61661884020727     -0.64532320327395
  H           3.60029781505778      0.90579174585243      0.66949015661058
  H           2.18523847578826      1.87628277940008      1.04960204378420
  N          -0.30135708443813     -2.64094414695087     -0.62759863702770
  F           0.14377882214815      0.67626844500760     -7.62949729839090
  F           0.92132259965622      2.25186206638507     -6.35639277190461
  H           2.06647074677550      0.83876845132416     -7.15924728165175
