21
Coordinates from ORCA-job NEB_im6 E -37.813980036750
  C           0.40413280541633      0.12669140685839      0.67864732024953
  C           0.58337651035171     -0.91471820510871      1.52378244453852
  C           0.75079254146586      1.50158173805897      1.13336697939532
  H           1.00992921834173     -0.70193006819939      2.48771172318648
  C           0.06645739883239     -2.20575439232170      1.44415785068024
  C          -0.15716988472310     -0.11595599944295     -0.69123125494799
  C          -1.45299438484047      0.62770769383118     -0.77028598718747
  C          -2.67418996145182      0.02269750518970     -0.62026836942673
  O           2.99058852403318     -2.63284429134868      0.31337290635147
  C           0.80844852609305      0.34475692700103     -1.79488326928799
  H          -0.28831298431491     -1.19520440880727     -0.81878057859404
  H          -1.39301382724391      1.68499357540840     -0.87436659352828
  H          -2.76219874387460     -1.03042784024794     -0.52242058625834
  H          -3.55388187161783      0.61751531942018     -0.59867687767638
  H           0.25790931721317      2.28269790386953      0.56154363532008
  H           1.82681065465491      1.64555722536687      1.02469757607817
  H           0.51368899164345      1.63987693144934      2.18860518304596
  N          -0.37881746404364     -3.26721207410306      1.53840182628394
  F           0.93790227677872      1.69421182451651     -1.82035776064008
  F           2.04737865152713     -0.14269715860967     -1.59594743387740
  H           0.46316370575865      0.01845638721927     -2.78706873370501
