21
Coordinates from ORCA-job NEB_product E -38.080126356600
  C           1.52743717455048      0.12266813347735     -1.77454865637311
  C           2.62662975898611     -0.90451675799672     -1.53489668083334
  C           2.06265272369687      1.52620661006345     -1.51186381903289
  H           0.74580108000050     -0.10715030793257     -1.03539742590905
  C           2.20390258086627     -2.26652717945900     -1.83715394399739
  C           0.86489263886759     -0.07859559943254     -3.16202946748231
  C          -0.32501775986224      0.82566592352714     -3.33185856523424
  C          -1.57183825051777      0.41818714879183     -3.19352926114765
  O           3.71216153141309     -0.65643222077319     -1.08657224380606
  C           1.83921736003929      0.13253831435014     -4.32477578781118
  H           0.53510560187584     -1.12243958358449     -3.22670986736681
  H          -0.09895988425443      1.85512814240578     -3.56956129863251
  H          -1.81422553414746     -0.60580999344696     -2.95973261551650
  H          -2.40246757441917      1.09240652779158     -3.30676976725984
  H           1.27402567969541      2.26471199552595     -1.62112623930805
  H           2.87453111848726      1.76758301610152     -2.19196787707968
  H           2.45213838772530      1.57825399328679     -0.49773901605051
  N           1.84773881219660     -3.33093315870714     -2.06147529350238
  F           2.22058703183674      1.42282542047552     -4.46017844971015
  F           2.97732194029373     -0.58154866793152     -4.14497284341983
  H           1.39806558266996     -0.18022175653290     -5.28444088052650
