21
Coordinates from ORCA-job NEB_im5 E -37.910923659430
  C           0.59414211017790     -0.00349692827629      0.71035519644350
  C           0.92128616053448     -1.43045658710412      1.16708137373054
  C           0.66194173758407      1.42675364102717      1.26617065683908
  H           1.57771782037594     -0.29849070661029      1.40615672115312
  C           0.00339762225042     -2.33424781635512      1.73933657424484
  C          -0.03830690025566     -0.11931667240532     -0.69933741179715
  C          -1.40792586736916      0.58626592818629     -0.71875362762275
  C          -2.55979287053501      0.03022962714777     -0.62821296496632
  O           1.92796407332720     -2.10037886299942      0.64324619622064
  C           0.85378283712284      0.38524577749455     -1.82106001476433
  H          -0.22893519782858     -1.18333111395792     -0.88657969796781
  H          -1.34307624108614      1.67784934455586     -0.83155631619735
  H          -2.71124008697805     -1.05110486746262     -0.54533761037315
  H          -3.49357863407718      0.60485399923073     -0.61387869575522
  H           0.18636731032468      2.16128668843805      0.61882156660435
  H           1.72287457786878      1.70289041958817      1.24804369248904
  H           0.29864580943983      1.54866040481155      2.27823134471362
  N          -0.52797856237218     -3.33126465549996      1.93454867137049
  F           0.96340570261281      1.73768197314588     -1.80178897372020
  F           2.10322346468075     -0.09321640992378     -1.65066923599723
  H           0.49608513420227      0.08358681696883     -2.81481744464769
