17
Coordinates from ORCA-job NEB E -39.776010022220
  C           0.15089634492237     -1.05858786482547      1.08642569762454
  C          -1.24349711995814     -1.13439538983216      0.99240012044051
  Br          0.83671974439369     -0.05658787076792      2.56459111948190
  H           0.72365681014139     -1.96606784831777      0.93154832561019
  Br         -1.87939717723275     -2.62938346045295     -0.12173702860712
  C           0.44709153405529      0.05092636692561     -0.51648754714744
  C          -0.39656876285050      1.14261242985284     -0.28115462698326
  C          -1.79022848279489      0.92268731955361     -0.22100328468955
  O          -1.99387450787212     -0.13278567137739      1.07757868815647
  C           1.91123827860837      0.29011963541207     -0.74506729800163
  H           0.08603396275700     -0.71234655757279     -1.20726435089392
  H           0.00520252920966      2.01768954642741      0.21039327217754
  H          -2.23666173965988      0.30227430793822     -0.99340892560797
  H          -2.40978686843100      1.75739968552616      0.07673914965779
  Br          2.09293275532921      0.78577549875420     -2.65945725944983
  Br          2.69736370019153      1.73176896026548      0.28615894129317
  Br          2.99887899919076     -1.31109908750913     -0.48025499306137
