17
Coordinates from ORCA-job NEB_reactant E -39.806087528540
  C           2.45616891034101      0.50304394483958     -0.25413505038185
  C           1.49488468452236      0.55596945711320     -1.16930754339219
  Br          3.41225147212383      1.96096879658831      0.48611927328216
  H           2.74227508035763     -0.43990014305234      0.17820293381447
  Br          0.66291297062685     -1.10472866518453     -1.63494478550575
  C           3.99400125632877      3.19569383586016     -2.66213176774398
  C           2.89277917375852      2.49841014859076     -2.88923393578852
  C           1.60235450368997      2.73791153660073     -2.17048439885076
  O           0.91990947669458      1.52337931987758     -1.88862855780074
  C           5.29827110660900      3.00753263251899     -3.33111262575487
  H           4.00688163614846      3.98341989703564     -1.91813843162996
  H           2.86267545009746      1.70167731623096     -3.62170383876147
  H           0.90937236785663      3.26936926662498     -2.83251600429093
  H           1.74822092256218      3.33372672907496     -1.26437976859781
  Br          5.85085733272913      4.70436674010394     -4.17129001889804
  Br          6.64889604142108      2.53197508976652     -1.97085811862320
  Br          5.32178761413252      1.63098409741057     -4.69865736107656
