17
Coordinates from ORCA-job NEB_product E -39.820153516780
  C           3.22531289656417      0.67795274130242     -1.83569604509525
  C           1.78493990762398      0.51130940676771     -1.44138621253519
  Br          4.30520386876086      0.24874873026061     -0.25995899676706
  H           3.48063070905701     -0.06352579349042     -2.60002665375410
  Br          0.62583686120937      0.43939715176107     -3.03096608900756
  C           3.42793575560446      2.10310949189882     -2.38124548173641
  C           3.10072203688513      3.13544774944409     -1.33562814372210
  C           2.22108284334292      4.10016971524856     -1.52628013109089
  O           1.30784698171234      0.42973987679131     -0.37096606684195
  C           4.80715447599179      2.37807031725933     -2.98624616274417
  H           2.72023657660092      2.20470024324959     -3.21801154184425
  H           3.63734829887450      3.04395734575434     -0.40121932732732
  H           1.67727569488898      4.20979916643842     -2.45084747223086
  H           2.01293718469968      4.82351975564045     -0.75831862712993
  Br          4.67648866888826      4.03952908967934     -4.02598840176774
  Br          6.23359444224903      2.63514309959814     -1.69442788418134
  Br          5.34915279704659      0.96183191239621     -4.23308676222388
