25
Coordinates from ORCA-job P E -34.547429537830
  C          -1.03148261467501      0.64880528946730     -2.08777908510993
  C          -0.71475908081973     -1.76782191439343     -0.34088408843432
  C          -1.06820966407289     -1.82681716510580     -1.79455696223448
  C          -1.20136899364164     -0.76342321979757     -2.56788092633353
  C          -1.10182945954741      0.70282744016809     -0.56063681142596
  C          -0.21481151160471     -0.38072129613831      0.05985281613895
  H          -1.21289726565194     -2.81885813613774     -2.19926720469119
  H          -1.44031839368888     -0.87629466877368     -3.61640202749818
  C          -2.08701749514050      1.56240682690636     -2.71104579648270
  H          -1.59341860691016     -2.03113874831303      0.25628483684425
  H          -0.04217862742530      1.00224549730224     -2.41047979198879
  H           0.06051269759513     -2.50906516559477     -0.13379347523567
  H          -2.13265735196876      0.53063568492758     -0.24345884317986
  H          -0.22985784730653     -0.27442427822022      1.15074329233981
  H          -0.79188548283970      1.68649585274675     -0.20535541410985
  C           1.23047123480295     -0.19453023089361     -0.36624342035988
  H          -2.00367200800009      1.55891965360703     -3.79541431725892
  H          -1.96206495688773      2.58402861202241     -2.35869351160745
  H          -3.08533015694542      1.22357031714614     -2.44165234460884
  O           1.93323372461775     -1.03427693094208     -0.86116113771661
  O           1.65823528662654      1.04670251872341     -0.08813608437734
  C           3.00526904741936      1.33365843122154     -0.43410545392887
  H           3.20372216207972      2.34149868756803     -0.07862234283365
  H           3.13971638430644      1.27577767109263     -1.51634478997503
  H           3.67966897967852      0.61784927141072      0.04016288406803
