25
Coordinates from ORCA-job R E -34.449925133230
  C          -1.03191039865029      0.33947878968974     -2.77668560529492
  C           0.89436519167456     -1.94673035280543     -2.26717977030065
  C          -0.29334574602153     -1.75958775558027     -1.70224217337774
  C          -1.28820982216577     -0.78749860440663     -2.11954947477135
  C          -1.41214319216181      1.56208611451695      0.54612954309563
  C          -0.81380967634281      0.50560185235062      1.07274246247968
  H          -0.58388967367554     -2.38313805063930     -0.86764131981225
  H          -2.30927114216406     -1.01032741764671     -1.83267966248621
  C          -2.07229397486972      1.31652670221672     -3.19883159531393
  H           1.58178376753685     -2.68873377094310     -1.89879537810934
  H          -0.01379321762733      0.60316327751281     -3.03223981213585
  H           1.21600977327638     -1.38151024309023     -3.12738971626364
  H          -2.42717526040005      1.82371804699267      0.79597297383260
  H          -1.31138288148966     -0.15220559768228      1.76956558330955
  H          -0.90148310587538      2.20059964991039     -0.15552985348146
  C           0.56550102182034      0.08898495519012      0.75170794797313
  H          -2.06693468728768      1.42299573597816     -4.28406661004087
  H          -1.86921441567569      2.30032526497050     -2.77574751721748
  H          -3.05705007355373      0.98806463269302     -2.88548052902673
  O           1.08618546592074     -0.90674873529620      1.19480480637331
  O           1.18872821381845      0.93945067254112     -0.07526096834650
  C           2.51331424486970      0.58562631672215     -0.43951293704047
  H           2.89457549293420      1.40813642139863     -1.03951755871168
  H           2.50258955043378     -0.34213914438871     -1.01651128363789
  H           3.12787454567609      0.44181123979525      0.45168844830506
