23
Coordinates from ORCA-job NEB E -51.650426169160
  C          -0.11720689753863     -2.14016524019091      0.76304954858768
  C          -1.14653822995535     -1.46773171276711      0.24625350488467
  C           1.30371419462495     -1.65140359547174      0.72356397663452
  H          -0.27491243934963     -3.09925014622392      1.22604742527985
  C          -2.55684722582140     -2.01201433976084      0.29586564628690
  C           0.88850293769522      1.63281350453428     -0.98727254007862
  C           0.05487574159955      1.85148958999232      0.01639358675662
  C          -1.02049320749518      0.89939630554652      0.42267399195213
  O          -1.02778579532289     -0.26974449846956     -0.39172505208899
  C           1.99210731023177      2.51430387174572     -1.40925329663189
  H           0.81180980655892      0.72295677300781     -1.56956621400152
  H           0.10159711246022      2.74609883477774      0.62204927276750
  H          -1.99768214710546      1.39563497195059      0.32921274747787
  H          -0.87924645559314      0.63790722082754      1.47816971851747
  F           1.69425835536755     -1.36350860504302     -0.54210727280481
  F           1.45815288236277     -0.49759164247941      1.42890004437123
  H           2.01476528382383     -2.38321644589345      1.13293302614304
  F          -3.28072732309265     -1.30553555248015      1.23022394627021
  H          -2.58420865653871     -3.06221804913929      0.59415957172779
  H          -3.05347849002200     -1.86096831029076     -0.66786808035662
  Br          1.82445707626161      2.91050156448321     -3.33103845451512
  Br          2.08371326935176      4.21057245280396     -0.47127890887329
  Br          3.71117289749690      1.59167304854049     -1.13938618830662
