23
Coordinates from ORCA-job NEB_product E -51.661737009890
  C           2.21192540534294      1.29516692633317     -1.91131325313945
  C           0.79337834902483      0.94810655217175     -2.40099718026775
  C           2.20387653122757      0.99138053357366     -0.40087218368675
  H           2.95826020981549      0.63079250928412     -2.35913648782651
  C           0.67791223508159     -0.45645191214244     -2.96854958986825
  C           2.54163271280074      2.77818101992547     -2.18733481984853
  C           3.58420637003067      3.32962793252119     -1.25078609241309
  C           3.36778219728083      4.36591419027263     -0.46353075176301
  O          -0.12353368646348      1.70443970060902     -2.28014055517386
  C           3.01934754011908      2.98642558707280     -3.62139776290865
  H           1.61012814505830      3.34881847783316     -2.06012728081650
  H           4.54125570004975      2.82616776131750     -1.25998334675917
  H           2.41716570086450      4.87211437141623     -0.43047004919808
  H           4.13553321090179      4.73900000366684      0.19043236614262
  F           3.46219497291731      0.92423101262409      0.08758786073303
  F           1.56368993668137      1.94616907643982      0.29625340591788
  H           1.71743455238555      0.02796831394501     -0.17614789712355
  F          -0.62366097102482     -0.83485878322375     -3.07808927888860
  H           1.18289775964891     -1.18586774481504     -2.32390772173830
  H           1.11599161036745     -0.48725382195780     -3.97434691811423
  Br          3.32520114602924      4.88278965096253     -3.95031958820936
  Br          4.69342692854917      2.03978089530725     -3.97891754997605
  Br          1.72145344331120      2.36415774686280     -4.95330532507383
