19
Coordinates from ORCA-job NEB_product E -33.843969419440
  C           1.61937599507961      0.01844855784157      1.50956969655806
  C           2.51939379290978      1.08235806277312      0.90349942827767
  O           1.91666912658034     -1.27354351016294      1.09144718806236
  H           0.57891902557820      0.29453580437982      1.26765239832494
  I           4.23108820528150      0.27090229830674     -0.09397985112050
  C           1.78472301544299      0.12004390135148      3.05425079158230
  C           0.84380987196222     -0.83498062311682      3.74053319917257
  C          -0.09828899893739     -0.44846731032511      4.57806824142817
  O           2.35396235606587      2.25219338240666      0.98539649617058
  C           3.14586873299553     -0.20225097662228      3.42954858817848
  H           1.57528136173397      1.15302083391670      3.35795369125884
  H           0.99766906190088     -1.87523978661466      3.49206900511524
  H          -0.25029536091492      0.58834072163151      4.83197156275723
  H          -0.75439152058449     -1.15744229960553      5.05215187647610
  C           1.19661257446462     -1.71542812016840     -0.03904352304822
  H           1.57029771689483     -2.71317656511147     -0.25610985495852
  H           1.36314074792710     -1.07181732810919     -0.90802452949184
  H           0.12320811287164     -1.76089817523845      0.17616299138355
  N           4.21215618274771     -0.45419886753275      3.75008260387299
