19
Coordinates from ORCA-job NEB_reactant E -33.831207916400
  C           1.04714283158151     -0.04397584926954      0.40489257574374
  C           1.18571051555004      1.23838995492556      0.72813361045026
  O           0.58009783888944     -1.01032632553383      1.25957811216736
  H           1.29189096080378     -0.36884229381727     -0.59775059726809
  I           1.80307673790499      2.59922316665414     -0.75626075574372
  C           2.12434218452114     -0.80302326829928      3.95389682723458
  C           2.11004735935701      0.40332638936887      3.39162145572438
  C           0.85762747892633      1.15677361530453      3.07791639871176
  O           0.96711007744746      1.90857328301461      1.88237107034511
  C           3.31938049351499     -1.49588844623961      4.22482121430648
  H           1.21066276582180     -1.31853095301410      4.21962564480206
  H           3.03450450302563      0.89961568979619      3.12380061266724
  H           0.67858158064174      1.91534749277227      3.84958214914659
  H          -0.00279455934420      0.47974410794479      3.03084490922152
  C           0.99664810876613     -2.32050803642053      0.94493121993215
  H           0.43020399492518     -2.98562765968657      1.59385959359501
  H           2.06754243863637     -2.45128998183773      1.13379746660829
  H           0.78330598713761     -2.56211298020346     -0.10082806412135
  N           4.28661870189303     -2.07376790545903      4.43756655647664
