20
Coordinates from ORCA-job NEB E -41.968247759180
  C           0.56593476826186      0.59382766857594      0.58982024437592
  C          -0.73223683109466      0.11622110331281      0.80775023152402
  C           0.78688800295475      1.98506564966777      0.03772753889838
  H           1.26240340543601      0.42368522687717      1.40665173077553
  C          -0.90316503716622     -0.89325780629362      1.93605346652417
  C           1.16811990273293     -0.52919805064497     -0.91569643736342
  C           0.05549301882898     -1.24005642698024     -1.34585361240505
  C          -1.12787411212205     -0.48502974764974     -1.60291319545882
  O          -1.60977445646724      0.04438269892038     -0.14791437788461
  H           1.99923042438862     -1.09053238862108     -0.51202025442197
  H           1.46464111973102      0.31965619315600     -1.51437804865277
  H          -0.07441808357946     -2.25503055357822     -0.99107693996208
  H          -2.00851986801866     -1.03188043046732     -1.91978350064379
  H          -0.99322698065301      0.44263545266056     -2.15135879541544
  F           2.10092600152620      2.19532287507947     -0.22321032790317
  F           0.13462461702381      2.24237471252545     -1.11623072224075
  H           0.47400319751984      2.74881853720513      0.77002973311768
  F          -0.12213481025672     -1.99420894382995      1.73979381239733
  F          -0.49674774137506     -0.36399090116075      3.11485894708100
  H          -1.94416653767095     -1.22880486875481      2.03775050765783
