20
Coordinates from ORCA-job NEB_product E -42.015366850600
  C           2.51464174069460     -1.08554206368018     -0.62436879375051
  C           1.22992061009166     -1.55807662550698      0.00496287866313
  C           2.33507101040369      0.32451108886023     -1.20004672841378
  H           3.26135273047351     -1.00454834289800      0.17649265115985
  C           1.32026561133695     -2.92370858435564      0.73632887886575
  C           3.06593455821648     -2.07566900761916     -1.67743302992748
  C           2.08787981561709     -2.37139839934913     -2.77378971499260
  C           2.36646562041304     -2.23986809210367     -4.05575515547562
  O           0.19527326618039     -0.95381518510342      0.00677615253075
  H           3.33368233722658     -3.00619221948159     -1.17075868207844
  H           3.97746600614420     -1.64649223653590     -2.09772262192091
  H           1.11787995405577     -2.72751563082451     -2.45364592514921
  H           1.64874252430948     -2.48068102578441     -4.81955514258370
  H           3.32412140490435     -1.87952043562873     -4.39396974878818
  F           3.54858696670727      0.84336299380327     -1.51056487028152
  F           1.61563437864637      0.33490832867124     -2.33741917498615
  H           1.84671768168217      1.00805498216152     -0.48752293292706
  F           1.17028040155609     -3.94457676531301     -0.13512261582176
  F           2.53234414195403     -3.08425820003017      1.31687585605008
  H           0.54173923938627     -3.01017457928178      1.50903871982734
