23
Coordinates from ORCA-job NEB_reactant E -36.547033269770
  C           2.14081766911683     -0.27740129113585     -0.49898648645452
  C           3.11244206695148     -0.67492984536961     -1.31547037059337
  C           1.40047113832642      1.01341248321199     -0.61862020841200
  H           1.87016318896385     -0.90978106460870      0.33408009959610
  C           3.81198818079245     -2.00154902557638     -1.14311281281332
  C           1.15966425044503     -1.41353044296195     -3.94092671502518
  C           1.94243916733958     -0.35279812195329     -4.04012386191199
  C           3.39247952878147     -0.39267479913878     -3.65083425772159
  O           3.56765804700541      0.13055307332337     -2.33691619398916
  Cl         -0.51960225182290     -1.36173089468865     -4.29114073025580
  H           1.50941224257735     -2.39075931409994     -3.64419992800732
  H           1.54277486226674      0.61095731802336     -4.31781071544062
  H           3.98401181504957      0.26282716073173     -4.29347883243887
  H           3.77699075079248     -1.41628146522876     -3.71962932072196
  C           1.53309131182130      1.84696654603644      0.65487539773359
  H           0.34319466289831      0.79459159260681     -0.79478046847940
  H           1.78580147800026      1.57275501067576     -1.47086790639003
  H           1.14693097593233      1.30037067820016      1.51250931964078
  H           0.97556633363979      2.77518619904943      0.55777933196930
  H           2.57715128969399      2.08766914554246      0.84015443633298
  F           3.15558719277964     -3.01329385495165     -1.82414741063678
  H           3.82832902113214     -2.30276138009283     -0.09286589647735
  H           4.82953707751647     -1.96529770759516     -1.54508646950347
