29
Coordinates from ORCA-job P E -35.102630369210
  C          -1.46059622612925      0.44862640098698     -2.35992881051907
  C          -0.37100052251035     -1.71667599518060     -1.10867344082014
  C          -1.76027033341655     -1.83271279014261     -1.64996948505276
  C          -2.28967021382644     -0.80398283932491     -2.29034180227946
  C          -0.94732179067046      0.76409979276122     -0.93869783276702
  C          -0.15643979655464     -0.40537437771675     -0.31732194288107
  H          -2.28927291029650     -2.76474581744543     -1.52621489846886
  H          -3.27954921577825     -0.80461105988087     -2.71769521775457
  C          -2.21630066711224      1.56399543158624     -2.87026125426417
  H          -0.14483813795182     -2.56981336547169     -0.47122751213254
  H          -0.60045276875275      0.28955239023635     -3.02482190149519
  H           0.32208070343514     -1.73980083663842     -1.95512587977183
  H          -1.81947740865244      0.98253984307394     -0.31862977867919
  H          -0.56974682489466     -0.57768737392961      0.68264570138263
  H          -0.34482315785555      1.67051768100284     -0.97644563370821
  C           1.34862877561866     -0.08312112940584     -0.10746744767276
  N          -2.82532225803661      2.44949578107652     -3.26113557078449
  C           1.48237909257408      1.03291033857699      0.93670048966644
  C           2.07390546791122     -1.31684258506882      0.44529020923624
  C           2.04446450815785      0.35336945330446     -1.39964182058405
  H           1.03555815458433      0.72638912756076      1.88001791328060
  H           0.99866005554324      1.95133188915954      0.61577404428105
  H           2.53250450356492      1.25400234234347      1.11422633047356
  H           1.55237608383827     -1.71320618298469      1.31382062560773
  H           3.08184339677474     -1.04571399017741      0.75169461100783
  H           2.15394354909440     -2.10185432891636     -0.30145034016638
  H           1.61656054171650      1.26942184205916     -1.79855984039969
  H           1.98371207209229     -0.41798565968909     -2.16389944922694
  H           3.09787532753287      0.53860601824465     -1.20119006550769
