23
Coordinates from ORCA-job NEB_reactant E -36.721028066350
  C           1.90334301192649      0.10857619577419      0.07180935617337
  C           2.11873916255797      0.56624762692978     -1.16389691204362
  C           1.65878810470498      0.98220018170343      1.25891416854079
  H           1.89016390036118     -0.95606084120081      0.24650902137259
  C           2.33968577254464     -0.42617417707025     -2.28303268184288
  C           2.63672592764143      2.05519918083088     -4.96269260955067
  C           2.02923372603537      2.31066394612332     -3.82067699469937
  C           2.74504100715330      2.47618371316327     -2.51257757413795
  O           2.05682666355870      1.90594939516275     -1.40422895271237
  H           2.09094338965647      1.96123945796021     -5.88502464712034
  H           3.70481538396169      1.92361045262932     -5.01944425094275
  H           0.95546059662970      2.42490227026721     -3.76506010903579
  H           2.78148393989647      3.54320963765147     -2.25933465543583
  H           3.77213922562065      2.10076222839806     -2.57590123280997
  C           2.49936483668149      0.54290945299835      2.45555242862998
  H           0.59955907976642      0.92808998545873      1.52705320110612
  H           1.88379820212890      2.01508060216537      0.99336638146764
  H           2.26538838086971     -0.48286938318331      2.73178189982894
  H           2.30170718630681      1.18362355699707      3.31113512845682
  H           3.55869740910657      0.60186184016018      2.21741832719638
  F           1.37594030759199     -0.34911393821010     -3.23666569566034
  F           3.52438676007017     -0.25582560702008     -2.92972011372814
  H           2.33206802522888     -1.45536577768905     -1.89378348305262
