24
Coordinates from ORCA-job TS E -38.300013485780
  C          -0.38518097483826      0.06638036923196     -1.21763768010171
  C           1.00194829310162     -1.92853762636680      0.35397249661026
  C          -0.31792453437798     -2.02461048368885      0.02716377594511
  C          -1.00276623282862     -1.06097530216534     -0.72588208744550
  C           0.03980351082102      0.83309193035051      0.93438209313496
  C           0.88519750300635     -0.02355481010412      1.58390982065654
  H          -0.91906474781104     -2.77558493023199      0.52210048900063
  H          -2.07708549702260     -1.14388389132855     -0.78635104609367
  N          -1.01833785971502      1.05773835360681     -1.89959644274346
  H           1.43518970615752     -2.66833382693393      1.00711543131103
  H           0.68465243317038      0.07286693948200     -1.35681602893975
  H           1.69733996979175     -1.41817053597622     -0.28855088313145
  H          -1.00699841890143      0.82829929043140      1.17081643822496
  H           0.51307485356088     -0.65029062273242      2.38131978801859
  H           0.41923309025697      1.70643675469205      0.43261745669718
  C           2.31919095453065      0.31218480426090      1.70227401512123
  C          -2.44048795881820      1.28053558659893     -1.80554607458688
  H          -0.46367451119673      1.86944047984391     -2.11806782746924
  H          -2.76541711033637      1.44831346884097     -0.77282821944060
  H          -2.97742157837407      0.41779508259119     -2.20208398734817
  H          -2.70346952688640      2.15089042732134     -2.40130111796799
  Br          2.53659370286496      1.83251742434604      3.02189677205360
  Br          3.42735993823570     -1.12938600131777      2.39196261408750
  Br          3.11824499560891      0.94683711924799      0.04513020440684
