24
Coordinates from ORCA-job NEB E -44.415296496220
  C          -0.47231994489655      1.72659861518458      0.06358227260942
  C          -1.11379797253753      1.08425276498775      1.03456013253092
  C           0.28875533029674      1.23332056097316     -1.12954193895274
  H          -0.52500453689337      2.80405573875187      0.13277264196801
  O          -2.70103061654236     -0.49412070879184     -2.00118404163131
  C           1.43998797214302     -0.89079495696393      1.45465411448077
  C           0.61914061846721     -1.53588923093708      0.63835020349937
  C          -0.84921482153596     -1.26493228409443      0.53444138398831
  O          -1.32453180545954     -0.22121584462243      1.34629966158225
  C           2.90690828286202     -1.10179109364593      1.52599084097890
  H           1.07656614719827     -0.09993452240810      2.09527754124005
  H           0.97594510278864     -2.32916485127961     -0.00352264148405
  H          -1.38761198774251     -2.15545320891368      0.88308982435600
  H          -1.12897948651751     -1.10670289499744     -0.51538911878469
  H          -0.36630978343817      1.15828188141578     -2.00246356533162
  H           0.75121206793448      0.26481446807861     -0.96638248284210
  H           1.07504358815713      1.94602434555104     -1.37154613620984
  C          -2.74129835434348      0.56933660736805     -2.54473481347063
  H          -2.94637603318551      1.50716103544186     -2.00294348327558
  H          -2.59466220214323      0.69173304197955     -3.63092698979269
  H          -1.60742526492971      1.67402350901378      1.79803241705735
  Cl          3.48222082289235     -0.91548761269435      3.20109013567310
  Cl          3.41993689761000     -2.69180621762574      0.93676950154432
  Cl          3.72284597981559      0.14769085822849      0.52372454026643
