24
Coordinates from ORCA-job NEB_product E -44.501529400220
  C           2.27430668510253     -0.11655812750136      2.22349589613944
  C           0.88699018759687      0.41535118113404      2.59171432503650
  C           2.16373898369469     -0.58224772784839      0.76685815501619
  H           3.04844544353284      0.64662655942705      2.30398557115669
  O           0.66801980032102      1.73286532938030      2.61977115402508
  C           2.62476755852895     -1.29161584185142      3.15932169303271
  C           3.68672720601185     -2.18530275190861      2.58199075958895
  C           3.50092269201658     -3.46704166000098      2.33345361828444
  O          -0.03564321044109     -0.33098013858812      2.78113084050734
  C           3.09126300489126     -0.77728093334354      4.52211145097771
  H           1.70859746738218     -1.87125564729631      3.32376697221192
  H           4.63774337389675     -1.71084439081862      2.38513372135735
  H           2.55979170714696     -3.95295125965217      2.53023508760985
  H           4.28141394538372     -4.08277727989648      1.92143778633536
  H           1.41862204098502     -1.36965971820900      0.68704304419007
  H           3.11739185765908     -0.96261740306167      0.41146005612913
  H           1.85826337910466      0.24521329700776      0.12944394400598
  C           1.69612319234536      2.69285364437893      2.46813633260583
  H           1.20092533528224      3.65819936910549      2.56182790266200
  H           2.16992833162053      2.62721202740885      1.48583794499439
  H           2.44855509673190      2.60001911572169      3.25510774670064
  Cl          1.86486520214096      0.26556230001338      5.28719998574367
  Cl          3.41393873628381     -2.14682133251426      5.60936524650692
  Cl          4.59180198278132      0.17275138891344      4.38297076518184
