24
Coordinates from ORCA-job NEB_reactant E -44.477084582260
  C           1.15597547036129     -0.16016518300549      0.95029005040427
  C           2.41471576653162     -0.14426918525491      1.38219486383765
  C           0.48604320447512     -1.38958182602248      0.42301066361292
  H           0.57489649511038      0.74573949193380      0.94481756164521
  O           3.09377499835165      0.92584609979076      1.89490059256317
  C           2.99789168016645     -1.29907515615206      4.15969069905887
  C           4.17440994607670     -1.16680010688405      3.56647915416343
  C           4.37241325558742     -1.27761503948047      2.08538678431724
  O           3.17881038946746     -1.27873020642871      1.33742142296428
  C           2.73373879398223     -1.13753263050786      5.60922581755198
  H           2.10831304775245     -1.51831050886458      3.58473830622346
  H           5.06935911366448     -0.95307328494888      4.13181595691396
  H           4.85012846730814     -2.23454873287013      1.84805337955941
  H           5.03611404067898     -0.46787584007616      1.75579205683770
  H           1.13372631584502     -2.25213800007473      0.54323998845201
  H           0.25206838320272     -1.27338491019625     -0.63511507297669
  H          -0.45013095395442     -1.56587750401179      0.95243285781799
  C           2.37249943657597      2.10759707172504      2.13777035340355
  H           3.07399637819287      2.78531412293120      2.62121608598184
  H           1.52438753666663      1.92174763827135      2.80304583720665
  H           2.01450735097385      2.55596305500396      1.20631243749691
  Cl          1.90861510480559     -2.59261394099021      6.24131297818685
  Cl          4.18464283070157     -0.86034314955179      6.58007822677652
  Cl          1.63510294747584      0.25972772566443      5.84388899800080
