21
Coordinates from ORCA-job NEB E -32.469955409170
  C           0.61106988498154      0.55290659655441     -0.11867653348544
  C          -0.62334252544527      1.11318897350906      0.19597933474913
  C           0.69071436217825     -0.42155160791430     -1.26455318329712
  H           1.46197734911300      1.21880765835794     -0.02244782099677
  O          -0.63187938702634      2.29726485050475      0.87357428780632
  C           0.67672906038384     -0.58422794938300      1.54601994073353
  C          -0.46257047911747     -1.36052155796917      1.43949301449273
  C          -1.70683507437663     -0.66477393444631      1.46411942679090
  O          -1.70273908871197      0.39815584912657      0.21216893045444
  I           2.57439364507138     -1.53466008640723      1.55704021938067
  H           0.69247357576383      0.25060767922693      2.23341433547332
  H          -0.41352300247673     -2.31217096833981      0.93324049482669
  H          -1.84944835698329      0.02250597145347      2.29560577456225
  H          -2.59185518746614     -1.25370505381752      1.25855700985853
  C           0.84293471526765      0.33286917365823     -2.58406555416022
  H          -0.22048776166945     -1.02105191955567     -1.29250052142993
  H           1.54601684546078     -1.08744681194077     -1.14114826318854
  H          -0.01087674857295      0.98589529900759     -2.74929315344532
  H           0.90732793295985     -0.37125884940904     -3.40989054658095
  H           1.74573509660063      0.93943036288791     -2.57685015716772
  H          -1.53581485593452      2.49973632489597      1.15021296462348
