21
Coordinates from ORCA-job NEB_product E -32.514416946750
  C           2.47375477929627     -0.30370844724771      1.07223908606610
  C           1.14995157289797      0.39309503767996      1.40622063666019
  C           2.34668772125759     -0.94941126108832     -0.31252295754390
  H           3.27536352515068      0.44524808189563      1.04631241586271
  O           1.25795393840008      1.47714885088656      2.19312561677270
  C           2.70545701008056     -1.25720788316900      2.25596098634618
  C           1.95752143254407     -2.53639754600612      2.16894864288528
  C           1.02786900410972     -2.88388592030010      3.04047148386356
  O           0.08175566662547      0.00122362676471      1.04398490511494
  I           4.84541377722317     -1.68474764214855      2.54759121624755
  H           2.44310454426131     -0.74352708763359      3.18466562268867
  H           2.21775706563586     -3.19212955837289      1.35103989521848
  H           0.75413595302345     -2.24994651309252      3.86818970993803
  H           0.49148660661521     -3.81207471234786      2.95207236698763
  C           3.61782718015593     -1.61616674705117     -0.82072664784877
  H           2.06556343238400     -0.15318097783371     -1.00696491135042
  H           1.51953278793666     -1.66020049574408     -0.29549119382243
  H           4.46232764705976     -0.93171791557073     -0.76945203050274
  H           3.48292704391841     -1.91106746998122     -1.85852623596462
  H           3.86393793553789     -2.50841533002139     -0.25200744301270
  H           2.17227137588592      1.71606991038209      2.39886883539356
