17
Coordinates from ORCA-job NEB_reactant E -30.045878246760
  C           1.61504352993923      0.14968953207258      0.08253030671856
  C           1.44266381862421      1.30651787486048      0.73866720237250
  C           1.73590875830092     -1.11941328844040      0.66200931219835
  H           1.66675265897941      0.15359483378556     -0.99630813043625
  I           1.27476351191096      3.10070098746975     -0.37930694275571
  C           3.84120315101235      1.05320323207692      3.89505400943314
  C           3.00343421916723      0.28255081262409      3.19675385832240
  C           1.55839068764020      0.61796452167886      3.04416159108930
  O           1.33026744354125      1.60640759564983      2.01481326663219
  N           5.19605442059801      0.87453498071955      3.96775287338038
  H           3.47567966858719      1.93182327326425      4.41066336773618
  H           3.36776859915470     -0.58622873463355      2.67014882475800
  H           1.16865407435858      1.11117344056870      3.93792848950114
  H           0.96291669098815     -0.27213343418889      2.82549135502754
  N           1.84640553414788     -2.18752203743933      1.07165462579503
  H           5.54509290130090     -0.01177661116354      3.63826963067051
  H           5.67120033174885      1.24611302109515      4.77261635955672
