17
Coordinates from ORCA-job NEB_product E -30.045022302600
  C           2.88998417190168      0.82386264396215      1.12757543077022
  C           1.56105434570540      1.45609136853199      0.83331557507654
  C           2.92150699058680     -0.51076909761832      0.57109791460193
  H           3.68513909577998      1.40233339225648      0.63904646653871
  I           1.23753888113193      1.72094630282221     -1.29821573000736
  C           3.18335983623503      0.78420263288039      2.65469078417352
  C           2.26501863433645     -0.17873968434082      3.35917740654766
  C           1.44054794382419      0.16814514670566      4.32869893740519
  O           0.73668335466885      1.80353796075806      1.60041323785998
  N           4.59636113347484      0.46829122125315      2.80101415589384
  H           3.02746964040369      1.79559482397479      3.04822615751167
  H           2.34852324726527     -1.20999635970435      3.03822498805715
  H           1.34673913139258      1.19135736176448      4.65318034848802
  H           0.81598452657828     -0.55251043830915      4.82743785310228
  N           2.95439908130366     -1.57861899826088      0.16863454291985
  H           4.77653780246373     -0.49319356049898      2.52682507673155
  H           4.88485218294765      0.57636528382315      3.76615685432923
