18
Coordinates from ORCA-job NEB_product E -40.978854669280
  C           3.44378530266743      1.36370458024161     -0.37879308010199
  C           1.95157872045734      1.25275368027902     -0.69932912515114
  F           3.84396543457624      0.23361878213985      0.27426010262952
  H           4.00758901051687      1.41432697998656     -1.32081312643154
  O           1.57477810256475      2.27180000327919     -1.47577028851150
  C           3.66994314427132      2.61717150084274      0.48615603600771
  C           2.94514326915957      2.46307018364183      1.79735564118487
  C           2.12354720885732      3.37380785608319      2.28254083783052
  O           1.22159897018732      0.39379229006422     -0.31204069582744
  C           5.14509975750178      2.92230876598764      0.73107633190681
  H           3.25624550466262      3.46588329794038     -0.07482144595360
  H           3.14094074153440      1.54033851125854      2.32559716151409
  H           1.91899515173166      4.29746185371029      1.76518695558663
  H           1.62519132625153      3.23064019635609      3.22463326982127
  H           0.63037466462474      2.20708347288204     -1.69407425824509
  Br          5.28191184134821      4.63657767669813      1.66692141923195
  Br          6.05652710327542      1.58880444767919      1.80675692336520
  Br          6.11668474581148      3.12415592092951     -0.95864265885626
