17
Coordinates from ORCA-job NEB E -42.220708400840
  C           1.01462575514054      0.52098817344051     -0.08404059148749
  C           0.10506077709810      1.34854610489855      0.59470806961781
  C           0.91988404288686      0.52324169584547     -1.59758094057708
  H           2.05535089105831      0.55718739732117      0.22553259901568
  Cl          0.61279579090145      1.90141609706266      2.18572711697249
  C           0.34148192967885     -1.20402623534174      0.53051189736294
  C          -1.02025064747866     -1.15504444105249      0.22749511290953
  C          -1.79907723108068     -0.14410027458190      0.84909009458469
  O          -1.14043279499549      1.29337690725021      0.36585154988537
  Br          1.39831378010492     -2.57502111738125     -0.27681035046728
  H           0.65871266230466     -1.05545993229890      1.55779138281644
  H          -1.37014900331145     -1.59153556670872     -0.69552066942570
  H          -1.68690396119590     -0.02377095108070      1.92361483730746
  H          -2.82314975777278     -0.04910079017293      0.51206991947288
  F           1.87171358156259     -0.22657412932303     -2.15937173483122
  F          -0.24633500165442      0.10959744381959     -2.09474506214100
  F           1.10835918675310      1.77027961830352     -2.06432323101554
