17
Coordinates from ORCA-job NEB_product E -42.264132731480
  C           1.78012314959235     -1.63850847788704      0.64524077221773
  C           1.11874100999225     -0.38904953975497      1.21697979585237
  C           1.57604341133793     -1.65859489592961     -0.87776998911606
  H           2.86251050805275     -1.57000711547867      0.80964728452640
  Cl          1.93538149165759      1.07791592652431      0.74105508901098
  C           1.20688648960826     -2.88209239199977      1.35000748051920
  C          -0.10364844428283     -3.35509765092517      0.81570731654463
  C          -1.22229353434746     -3.28503653026706      1.51279873382717
  O           0.16895761086291     -0.37053388567466      1.92371454629391
  Br          2.53391317343116     -4.34505778381458      1.25082097199254
  H           1.12112918973421     -2.65526162608819      2.41548734525346
  H          -0.08826205062684     -3.78638720897091     -0.17519972222144
  H          -1.25068329906242     -2.86362047984816      2.50362994201856
  H          -2.15573841052764     -3.63133070113608      1.10640044806150
  F           1.85246123768170     -2.84638066798092     -1.41598735304634
  F           0.31911961280178     -1.35736720735815     -1.22742834463893
  F           2.36835885409431     -0.77418976341039     -1.49060431709569
