18
Coordinates from ORCA-job NEB_product E -33.178303911780
  C           0.67454877592416     -0.74873241577472     -1.00902628885490
  C           1.58960766345018     -0.94686569766965      0.18525828114706
  O           1.40025888103215     -0.32817252116761     -2.12347121723547
  H          -0.12440690029063     -0.03511945536927     -0.74712811420873
  Br          0.66563740707897     -0.61343808539029      1.88682799804406
  C           0.07131227414997     -2.12032566409282     -1.35158258599222
  C          -0.71702994604493     -2.73131956982981     -0.24790160967474
  C          -0.47104667249714     -3.93527516058340      0.23586238588726
  O           2.72122417472319     -1.27223487849105      0.19352320616935
  Br         -1.10342763193310     -1.84142449815110     -2.90837262405187
  H           0.86975558247139     -2.77594576627836     -1.70530599902668
  H          -1.53622694200511     -2.13302943506116      0.12770605184317
  H           0.33370977533293     -4.54735403708642     -0.13803668590961
  H          -1.06353078443353     -4.35128888890824      1.03112613630692
  C           1.79985278116703      1.02447745117142     -2.09242038506654
  H           2.27156789774158      1.21491540273667     -3.05320089372928
  H           2.51903570150720      1.21320538224252     -1.28887084869576
  H           0.93525796262572      1.68602783770329     -1.96918680695201
