18
Coordinates from ORCA-job NEB_reactant E -33.163154393050
  C           1.24271843403396     -0.02247935537350     -0.20902417000790
  C           1.14355164541915     -1.12253396727253      0.53611607364452
  O           1.55990166871514     -0.07799674322304     -1.52421261753420
  H           1.07572967804899      0.95157156221164      0.23344002933096
  Br          0.59192820227729     -0.90580489601726      2.37307487283790
  C          -0.87992332345122     -3.64322466785464     -1.97980305717529
  C          -0.67928432296735     -2.93803065775499     -0.88200493566045
  C           0.34887557144606     -3.30425426516661      0.14328776266286
  O           1.43174262340523     -2.37547171059007      0.15368856366654
  Br         -2.15243500475139     -3.15568751123507     -3.28352942786034
  H          -0.35299512568833     -4.55379259121899     -2.21707390517133
  H          -1.23103012755751     -2.02583086217618     -0.69958630384274
  H           0.80928454269399     -4.26824574144544     -0.07882572809541
  H          -0.11182781490111     -3.33791959173027      1.14178734102976
  C           1.76140654391249      1.16889321365911     -2.15208279735008
  H           1.94707148154143      0.95068504093425     -3.20164245777028
  H           2.62601916574475      1.69002560601915     -1.72955025411975
  H           0.87606616207842      1.80629713823444     -2.06315898858475
