18
Coordinates from ORCA-job NEB E -33.331045661550
  C           0.99516827892057      1.16719405229075     -0.02856922614581
  C           0.07346377953483      2.01493873605862     -0.62635357588763
  Cl          2.40363109974852      0.64416741068603     -0.86307200584912
  H           1.15153746007464      1.30332542222473      1.03390095168732
  I           0.16646233700186      2.21226561580123     -2.78637952303011
  C          -0.23501311930948     -0.59774803814408      0.27044209490278
  C          -1.47712723115918     -0.15511693029212     -0.19245843986190
  C          -2.10273146665536      0.91540928782866      0.40966778157941
  O          -0.96790680638473      2.37903958512771     -0.06926339369449
  O           0.40666125793949     -1.55490205875567     -0.40743101715965
  H          -0.03286318746193     -0.54003133201367      1.33769905892080
  H          -1.74037748374491     -0.42876504539655     -1.20496961989600
  H          -1.94791923862508      1.10736227366954      1.46001014613253
  H          -3.02254145368192      1.29678544409703     -0.00120611782565
  C           1.39098749711442     -2.29031790803319      0.29357357656011
  H           2.16092208059576     -1.63648745383995      0.70966757353975
  H           1.84199985903079     -2.96159031682435     -0.43383930372287
  H           0.93564633706170     -2.87552874448470      1.09858103975054
