15
Coordinates from ORCA-job NEB_product E -29.747124234980
  C           1.54459486999261     -1.07481936496305     -1.20081133730244
  C           1.14399921500834     -0.90838676080078      0.24679229462277
  O           1.16959548995493      0.03455300264133     -1.94435607026637
  H           2.63515652927168     -1.15153826538425     -1.28262694285004
  Br          2.03573487501467     -2.17910218673872      1.42485747340006
  C           0.90484062740486     -2.39645962918536     -1.68836522876474
  C          -0.56119327072378     -2.44422110444945     -1.44116653817865
  C          -1.14205166893477     -3.39105294441338     -0.72629606064779
  O           0.34757804339267     -0.15176835565847      0.68165302937451
  I           1.29638637718922     -2.56215026040030     -3.82299860646504
  H           1.40933038817725     -3.24574035701425     -1.22773343618896
  H          -1.14415931761291     -1.65113749112228     -1.89130514628446
  H          -0.57830449746677     -4.19569184808720     -0.28275682580472
  H          -2.20379964395430     -3.39596560256446     -0.55394806054880
  H           0.26699198328629      0.29978116814060     -1.72263854409534
