20
Coordinates from ORCA-job NEB E -44.858560939490
  C           0.76980496547121     -0.46986800209032      0.36655452239126
  C          -0.14201308181954     -0.61494568963712     -0.80761756212116
  N           0.09727259850065     -1.01177776035372      1.57769597643210
  H           1.69278696567664     -1.03495013298264      0.22487732240742
  C           0.17109497571885     -1.64366129218732     -1.85053510844810
  C           0.96453791921218      1.06632335914217      0.47505195801598
  C          -0.24300688138680      1.64057155556193     -0.17993769433716
  C          -1.57799284291188      0.99892747974501     -0.23354316310237
  O          -1.46550999395655     -0.31968693523086     -0.69188958643040
  O           1.23452117406907      1.60761835835370      1.73398064540601
  H           1.85432251952393      1.29988622816983     -0.12075506801067
  H          -0.28018338165695      2.72338082942630     -0.14229015963548
  H          -2.21802099533869      1.51273394539164     -0.95901321162413
  H          -2.09198078365921      1.04342149575680      0.74078123189374
  O           0.34764753335914     -2.14293574113898      1.89133539612804
  O          -0.68923731143651     -0.27482811792181      2.13805670383661
  F           1.13217853405420     -1.17308650520556     -2.69672384440597
  F           0.69390230692576     -2.78043265514044     -1.32527735050019
  H          -0.71344148604599     -1.90384983139498     -2.44922428790070
  H           0.46331726570049      1.47715941173638      2.30847328000517
