20
Coordinates from ORCA-job NEB_reactant E -44.917573373820
  C           2.20642591867323      0.69170863303776     -0.11464320871326
  C           1.50725620171711      0.98622637736108     -1.22982749896548
  N           1.92079273274665      1.11032053588971      1.21265733811551
  H           3.11157746745562      0.10939793790996     -0.18606149170282
  C           1.96750270471532      0.34399971378175     -2.53965154390733
  C           2.26959485850887      3.99704656150886     -0.69518002080516
  C           1.20038978772800      3.65223599712605      0.01474622643689
  C           0.08638307620487      2.79923468426896     -0.51789126156630
  O           0.51526278248816      1.82221215502403     -1.46411453010814
  O           3.29870850235000      4.74108505357873     -0.25940323243123
  H           2.41491588060487      3.68925962230677     -1.72232267079252
  H           1.08862858460369      3.97970423565665      1.03868803085785
  H          -0.63983442855551      3.39261291850288     -1.08310329334359
  H          -0.42679779013939      2.30980240630208      0.31914616626352
  O           2.87031523818393      1.36008546832731      1.92539798609282
  O           0.75852812139548      1.14375478890719      1.57176466194936
  F           0.91419123655750     -0.10961832870878     -3.24302002975780
  F           2.57901182586158      1.27544187152346     -3.30829333781418
  H           2.66935571303186     -0.48910296800096     -2.38875538094630
  H           3.16989158586813      4.99189233569651      0.66546709113815
