20
Coordinates from ORCA-job NEB_product E -44.909940324530
  C           2.54076800366253      1.70381868228353     -0.24019679355851
  C           1.59711863745463      0.73507986530861     -0.90772358968526
  N           2.64228781166110      1.36256355675127      1.21240899853993
  H           3.55113677744713      1.60564359234118     -0.65476546057419
  C           1.87293768581419      0.50784422150483     -2.41481447463194
  C           2.05940726375223      3.19273491208901     -0.47049334047479
  C           0.64493754732380      3.36899817768727      0.01370888194979
  C          -0.39972880344481      3.37747225482433     -0.79164709792297
  O           0.66175572234541      0.21581138886958     -0.37367365904889
  O           2.96325503902524      4.07608687090233      0.10679736442980
  H           2.11119691372397      3.37503764085872     -1.54974055129795
  H           0.53298476253852      3.49665391564543      1.08129174560343
  H          -0.30066222402346      3.25604088831276     -1.85789860552197
  H          -1.39847979888804      3.50646142505476     -0.41368444135908
  O           2.98590001358808      0.23827186991331      1.45622409990724
  O           2.40614379109999      2.22285701593345      2.02093803919575
  F           1.35223990734316      1.54043373973235     -3.11932488870730
  F           3.19579179305445      0.49195013268401     -2.67614780301999
  H           1.41949838328383     -0.42672716633499     -2.77478160626658
  H           2.84401077323805      4.06226701563825      1.06932318244350
