25
Coordinates from ORCA-job NEB_product E -36.437617202120
  C           2.61373229897869     -0.90498788641737     -0.18788316002490
  C           2.84684472200714     -0.36607354486252      1.21921665768535
  O           1.24182973440609     -0.69835866108442     -0.45467422908562
  H           3.22157216018828     -0.30550602243931     -0.88450804994501
  O           3.80388539125226      0.57040798968292      1.22274747435421
  C           3.03945020971445     -2.39314152516335     -0.28234550220408
  C           2.02263587415022     -3.25180867427531      0.41163311643049
  C           1.45091868510525     -4.30552064311888     -0.13906839050937
  O           2.27561132220837     -0.70721087091232      2.21429878942929
  C           4.43018054385017     -2.63645318198349      0.32540769812113
  H           3.08158782989270     -2.66419643825052     -1.34353635015096
  H           1.77754732466053     -2.94772795460579      1.41849066803370
  H           0.73268213729327     -4.90577954884232      0.39210289696527
  H           1.67955656716748     -4.61996557710240     -1.14604713969223
  C           0.86551494631281     -0.92948121629990     -1.78955278193894
  H           0.89267547057432     -1.99353464607703     -2.04357400333633
  H           1.50875583297122     -0.37480249998862     -2.48424542401228
  H          -0.15735097466744     -0.56837028247746     -1.87710899923066
  H           3.93767220474427      0.91582997233511      2.12100204830485
  C           5.54514217256897     -1.87990060870336     -0.38824616669808
  H           4.63043395320994     -3.70912013688512      0.26485980035204
  H           4.41797029692295     -2.36706999823661      1.38350957153900
  H           5.53465495240148     -2.10018207428833     -1.45374633613432
  H           6.51115047610030     -2.17955038551603      0.01168421540441
  H           5.44144586798630     -0.80669558448758     -0.25321640365695
