25
Coordinates from ORCA-job NEB_reactant E -36.413440097740
  C           1.33850804664812     -0.23501606848587     -0.00968063118206
  C           1.28837160845686     -0.57655333939018      1.27715250518089
  O           1.24659885911947     -1.10883928230572     -1.07664824013971
  H           1.42779475060144      0.81597181793534     -0.24719841423578
  O           1.30497909623486      0.41326742370815      2.21611331761127
  C           3.56879098643307     -3.32009140469339     -0.25795316421080
  C           3.00103941559699     -3.04294952303599      0.90287164645592
  C           1.52096562679461     -2.95549888294104      1.12540807935214
  O           1.16285836558645     -1.79793425666430      1.86894245643041
  C           5.04387873217453     -3.42647259365588     -0.47816930860132
  H           2.95119359770159     -3.48747754438396     -1.13055880772255
  H           3.60403753025226     -2.85919409661359      1.78314964959551
  H           1.18670648572120     -3.78450062284291      1.75946225788222
  H           0.98168959920385     -2.98142506281611      0.17531566971582
  C           1.94942018976846     -0.67834131814472     -2.21655122565779
  H           1.73083529900564     -1.39779518865527     -3.00407975747121
  H           3.02893338639276     -0.65134614513761     -2.03399727884159
  H           1.61762046736090      0.31740025432740     -2.53234729598668
  H           1.19376417832713     -0.01286652940697      3.07616635727410
  C           5.52994255888323     -2.39770762689256     -1.49898324171296
  H           5.27566783325262     -4.42923433340826     -0.84890382775471
  H           5.57170838115011     -3.28371867215051      0.46649059536824
  H           5.01514091835025     -2.52927878018404     -2.44836634581551
  H           6.59874316219722     -2.50607545277483     -1.66824689074760
  H           5.33941092478638     -1.38962277138715     -1.13708810478624
