21
Coordinates from ORCA-job NEB_product E -32.758737164780
  C           3.04987398291893      0.03619447191463      2.09562749031164
  C           1.58998705044996      0.46073395670638      2.21974632536301
  Br          3.29896499323470     -0.28537717500043      0.16848796483616
  H           3.71484566583089      0.87019741235659      2.33501410711518
  C           1.30730968653694      1.86016681645217      1.75199849233784
  C           3.40519808034509     -1.17930337188653      2.98250375194572
  C           3.17269776511207     -2.48689562632667      2.27657754516116
  C           2.10051494720181     -3.22972637872105      2.47107170618993
  O           0.75312309739941     -0.27433427793867      2.67056803516721
  O           4.68334505909389     -1.02520332022309      3.56345562301071
  H           2.72761130991315     -1.12478544076349      3.84544286467234
  H           3.93005550937095     -2.78203766701026      1.56401093020521
  H           1.32819925597244     -2.94031410798999      3.16362561687857
  H           1.94519014404453     -4.14590709736594      1.92745060485114
  H           1.67417567004730      2.55383665108975      2.50873870394490
  H           0.23574695932902      2.00225388004674      1.63832204601599
  H           1.81268240575731      2.08057848514636      0.81493409148046
  C           5.80592000410311     -1.24382851601050      2.73378530262785
  H           6.66085712922399     -0.88746309985649      3.30626061476082
  H           5.74810699748860     -0.68411216712335      1.79591369713160
  H           5.94779428662591     -2.30597342749617      2.51316448599254
