20
Coordinates from ORCA-job NEB_product E -52.162194191500
  C           2.95376764326076      1.83404124594889      0.14427035231713
  C           1.65838315970453      2.53619684236380     -0.28229048548640
  F           2.58233375811571      0.61437744957727      0.65802925451644
  H           3.59822184825064      1.61949118655735     -0.71701917435162
  C           1.45107251818374      2.66696647789256     -1.79891427225007
  C           3.73297668914193      2.57307626994788      1.25694678698791
  C           2.85143978496092      2.89790685078917      2.43375687861831
  C           2.87863416118984      2.20492978284056      3.55619321131989
  O           0.78719126037496      2.82151418405729      0.48150683439319
  C           4.43388630029532      3.81963989643056      0.74689999906179
  H           4.50841849882733      1.86706279215671      1.58838543368452
  H           2.17142725167604      3.72840885942761      2.30956905972040
  H           2.22937473751544      2.45055426289708      4.37714202834251
  H           3.53833743002791      1.36450495740392      3.69653006343495
  Cl          0.96579678750105      1.00070322009165     -2.24891105724129
  Cl          0.14822231954199      3.80046022151207     -2.14897245588397
  Cl          2.89756593843179      3.11495132557051     -2.70927902091047
  Br          5.39352605436188      4.65943876381835      2.22047713493300
  Br          5.74722072893226      3.39349224798840     -0.63550860757783
  Br          3.18320312970595      5.13128316272836      0.02068803637159
