20
Coordinates from ORCA-job NEB_reactant E -52.158253873600
  C           1.35948771890517      0.10652515855535      0.06929907316317
  C           1.42554886461224      1.34876563920757     -0.40831992963535
  F           2.06432337975541     -0.32521909476158      1.13156653195874
  H           0.73898302163358     -0.66753964526989     -0.34694806966014
  C           0.61656017235951      1.78085912453890     -1.60395978534486
  C           4.85461021972579      3.72580228258339      1.90537826784342
  C           3.64355371852406      3.57786590547364      1.39287646327601
  C           3.00859821788167      2.24934718700967      1.14602800865413
  O           2.15779447138693      2.40089236040970      0.02007478586190
  C           5.52069561533553      5.01004563998351      2.20881038666200
  H           5.45800906075051      2.86322869628218      2.16355333055509
  H           3.02610264721127      4.42252135792412      1.12010554635396
  H           2.41830730047509      1.96296955555954      2.02851138820345
  H           3.76229831934013      1.47485005047555      0.96487838456909
  Cl         -0.40664054305958      0.51030988873008     -2.26791367374894
  Cl         -0.42074138234939      3.14977436414373     -1.12760258041381
  Cl          1.73450267672861      2.33130583821905     -2.87964877480814
  Br          5.90671352992802      5.09533659836138      4.14583733676649
  Br          7.24219446557157      5.09308960205030      1.25192944940937
  Br          4.50259852528389      6.59026949052378      1.73934386033443
