17
Coordinates from ORCA-job NEB E -33.933826447110
  C           1.02875026310500     -0.07901906091521     -0.85251368955814
  C          -0.25043300184407     -0.67073241529323     -0.87301339621781
  F           2.07519879307707     -0.86878634915634     -0.53224890396141
  H           1.31001201377815      0.60532835778949     -1.65049222799780
  C          -1.36008667686738      0.02318205160707     -1.63500824945214
  C           0.88567506446841      0.95286262719960      0.70900925233969
  C           0.59626069819797     -0.01854080063118      1.67597614688579
  C          -0.63028814377552     -0.72389846642646      1.54060916153904
  O          -0.57104414555931     -1.47664548456649      0.09468540351566
  Br          2.55400217276429      1.88548453667439      0.86310214988890
  H           0.11499454255580      1.64992273938331      0.39796040721418
  H           1.42138722437865     -0.50271463470343      2.17728620294457
  H          -1.52338877639583     -0.11685210672361      1.40980526978326
  H          -0.78405470882114     -1.55220614905315      2.22059978465290
  F          -1.05478540309734      1.34252753425188     -1.87267687839276
  H          -2.29226003143102     -0.00511115233178     -1.06014565054436
  H          -1.51993988453373     -0.44480122710485     -2.61293478263959
