17
Coordinates from ORCA-job NEB_reactant E -33.970746429940
  C           2.42361959106006      1.08133222515966      0.11272746161535
  C           1.38647874146545      1.84818368510876      0.43063448385887
  F           3.31939792561468      0.58491874422530      0.99341528701674
  H           2.64253037014942      0.78975752983945     -0.90052498021811
  C           0.44779150781169      2.34516788122418     -0.64275026955455
  C           3.40842080969793      3.64967323741787      2.16569929773424
  C           3.01079048931554      2.66117952845048      2.94449034356172
  C           1.69288298068706      1.95835077501593      2.80249183631160
  O           0.96078894490403      2.30305870096774      1.64187430878393
  Br          5.07356270453453      4.51132556381839      2.38578274541184
  H           2.82856042294192      4.05164718448074      1.35056486749867
  H           3.63237833643285      2.29560284192843      3.74814562381938
  H           1.03935857537608      2.24938745798883      3.63305487616415
  H           1.85011661254988      0.87454042219875      2.85855738289080
  F           0.83588738352985      1.94399386649303     -1.88710079158056
  H           0.41851044583057      3.44076467886926     -0.64299496591494
  H          -0.56197584190156      1.95601567681319     -0.46966750739914
