17
Coordinates from ORCA-job NEB_product E -33.970599044900
  C           2.01428038815415      1.83757976318074      0.60843496165030
  C           0.77432542751357      2.45662241403125     -0.07864754464105
  F           1.75386262477024      0.49821456356748      0.80240323312210
  H           2.90884743136374      1.89154912972869     -0.02434880047220
  C           1.03149729092615      2.87250800479652     -1.51078941537729
  C           2.24564746367302      2.50491347941384      1.96232768497490
  C           3.35078451962177      1.88231430371214      2.73803229491899
  C           3.20379967400631      1.43974306246278      3.97321618600669
  O          -0.26676851875949      2.57013493493769      0.49510392902690
  Br          2.68827822716639      4.38605210987437      1.55110273304371
  H           1.31089356375117      2.52916764367980      2.52733815106132
  H           4.30012757138205      1.81592418586777      2.22365301539128
  H           2.26291662421215      1.50703741207580      4.49407748103283
  H           4.01899162726631      0.98564976448891      4.50811212692076
  F          -0.08939334247361      3.37125431592530     -2.09769973301183
  H           1.36017950159411      2.00565595886853     -2.09816538915229
  H           1.80012992583197      3.65647895338839     -1.53715091449512
