20
Coordinates from ORCA-job NEB_product E -41.857313905570
  C           2.58756477558804     -1.77684837318170     -1.33089704770233
  C           1.37486223505003     -2.66193434647057     -1.00650070826307
  Cl          2.02305178202632     -0.12135160795682     -0.92927395092750
  H           3.43809633040236     -1.98317967315327     -0.67788662527202
  C           1.31018206703934     -3.10628166109084      0.42102186009252
  C           2.97763715804257     -1.85010873465987     -2.80989951187739
  C           3.79009894692493     -0.66591220354301     -3.25795056534982
  C           3.44843673302070      0.10562204441708     -4.27068843246817
  O           0.55837955539811     -2.92309277830551     -1.84557895678911
  C           3.79885034690790     -3.11975343351557     -3.02383183913634
  H           2.06559961723947     -1.94528315290609     -3.41120842951764
  H           4.69184698858081     -0.48547083529177     -2.68942302713840
  H           2.55141098559904     -0.06751280086757     -4.84153521824933
  H           4.05249552238780      0.94524434840781     -4.56577652165727
  H           2.08527321211851     -3.85381238862015      0.58542495644482
  H           0.34036369566834     -3.54751570556180      0.63229083340170
  H           1.49736188452062     -2.26789123549190      1.08748699273888
  F           4.97821499715298     -3.07274537483279     -2.37973136420924
  F           3.18301413231680     -4.22391245770320     -2.57262440132042
  F           4.07375903401535     -3.33005962967248     -4.31371804279986
