14
Coordinates from ORCA-job NEB E -26.534991205250
  C           0.86640212957167     -0.99213193422899     -0.02767489118680
  C           0.58071488032278     -0.46234722220629     -1.33277561653028
  F           1.92708113804847     -0.39786670829111      0.61287721651405
  H           1.00880111889382     -2.07140946050611      0.03163085277568
  H           0.07931849646536     -1.12427730963304     -2.03921188783747
  C          -0.44175905222834     -0.52799177933977      0.94117829956924
  C          -1.01317849508432      0.72210550659172      0.50363372689472
  C          -0.07732148567631      1.59560384498909     -0.12061952522121
  O           0.34037804923012      0.79709709008674     -1.44306750391238
  Br         -1.72204151969270     -1.99289170656362      1.02212503352292
  H           0.06446598285992     -0.49910479559827      1.90643503674481
  H          -2.00626334574155      0.68805097645811      0.07549458204834
  H           0.86640742698326      1.74773308250155      0.39993841136804
  H          -0.47300532395219      2.51743041573997     -0.52996373474967
