14
Coordinates from ORCA-job NEB_product E -26.576510556410
  C           1.14389184534926      0.41381670838898      1.69155721308719
  C           1.76676899884797      1.19919367083449      0.54605774297719
  F           2.12195720879773     -0.12050205599571      2.48466409384923
  H           0.56301638481273     -0.42590992024489      1.28315153049148
  H           1.01112753458448      1.50314926823116     -0.20465565940073
  C           0.25878001829737      1.34358125416575      2.52601088742314
  C          -0.74351665688511      2.08422814277637      1.71174736868851
  C          -0.88618035521692      3.39659687320344      1.75176863296985
  O           2.92055906421931      1.47688759325650      0.45022939014923
  Br         -0.72001946450911      0.25283913449299      3.86946469999815
  H           0.89176556942767      2.01529280043638      3.10948794692120
  H          -1.39232235261235      1.46803696406255      1.10341996842867
  H          -0.26079395844885      4.01913085389253      2.37003419559864
  H          -1.63373383666419      3.89975871249946      1.16446198881824
