14
Coordinates from ORCA-job NEB E -29.589191327110
  C           0.43731989627603     -0.96451835243422      0.94643222837902
  C           0.82772192679933     -1.14344870481554     -0.38513885381405
  I           1.82536703175311     -1.08823636560618      2.52610005935545
  H          -0.49677681072380     -1.44051613201173      1.22392323331455
  I           2.84836063057681     -0.70099270981861     -0.95872965690536
  C          -0.24252433275234      0.85212230621948      0.85509413659363
  C          -1.14545783381261      0.80162890954759     -0.20489685198773
  C          -0.65248948550993      0.46907753373093     -1.48860644087584
  O          -0.05202227185271     -1.06942366479768     -1.29745484618460
  F          -0.75059048236266      1.03107746390742      2.08524052648424
  H           0.70980144543371      1.37117434177784      0.76331098084482
  H          -2.17441897387704      0.57692966346375      0.03612831731800
  H           0.24756247380411      0.97658807919130     -1.82661556612852
  H          -1.38185321375201      0.32853763164567     -2.27478726639361
