14
Coordinates from ORCA-job NEB_product E -29.630233472390
  C           1.47313799832914      1.57881012626358      0.71896445500974
  C           2.22194832169224      1.02699742983010     -0.45008734049413
  I           2.85593845787703      1.61685646644209      2.38338185775860
  H           0.69108586697343      0.86425673804447      0.99277181211742
  I           3.73768247575338      2.33722507551138     -1.24997806345124
  C           0.83522815800296      2.94651607891561      0.47335810490174
  C          -0.03863784087961      2.88181918257778     -0.74663754107517
  C           0.18382792057347      3.58222097704206     -1.84234750008924
  O           2.06535992013385     -0.04103718128293     -0.93135109964841
  F           0.06824993957048      3.25022111588505      1.57641288870766
  H           1.58575742237781      3.74200530515766      0.38907601711005
  H          -0.88774969203589      2.21827353514319     -0.65810991993284
  H           1.01888411271676      4.25773056352590     -1.93169368126474
  H          -0.46441306108506      3.50470458694403     -2.69745998964945
