14
Coordinates from ORCA-job NEB_reactant E -29.615542950810
  C           1.70995973940749      0.93305188637476      0.20893079038732
  C           2.35912513818031      1.59810306711780     -0.73727365430552
  I           2.62107540816898     -0.37836302499097      1.55262797606168
  H           0.64886001132740      1.03733931497404      0.35635466092785
  I           4.43423142966233      1.48048059587423     -1.05436909130803
  C           0.68013804805466      4.18007634461488      0.28128704031319
  C          -0.07834081071310      3.48538869587786     -0.54559824365413
  C           0.44921045504770      2.66461111610601     -1.68353144641251
  O           1.84543723228928      2.44569968253735     -1.64935700793778
  F           0.14797730475058      4.90472800350157      1.27120684978707
  H           1.75862431134944      4.24498864443292      0.26451543816923
  H          -1.15271484066464      3.50489433780970     -0.44025764002008
  H           0.28136322539467      3.19628648272536     -2.62721141962598
  H          -0.08504665225510      1.70561485304448     -1.73402425238230
