18
Coordinates from ORCA-job NEB E -38.485032703850
  C          -0.20237482250758     -1.31304650744184     -0.37134406697445
  C          -1.54511619949462     -0.91912501526229     -0.52466201389479
  O           0.12768735441857     -1.86477214283620      0.82385016503082
  H           0.29920980126318     -1.71991512400328     -1.24788327515173
  Cl         -2.01354120157136     -0.61471796995553     -2.20974690687181
  C           0.50679351349829      0.53998573152739     -0.28860596499240
  C          -0.19452970633910      1.06717805520877      0.79562263403002
  C          -1.58843387352246      1.24519522345471      0.65361457183506
  O          -2.18196384215274     -0.30868870734854      0.37430414563307
  C           1.99997272412070      0.35725517394486     -0.18051677216068
  H           0.21865261414921      0.83921440108638     -1.29180476249671
  H           0.21690570925580      0.93577773359890      1.78546082983126
  H          -1.93820797399027      1.70935359532313     -0.26317534344846
  H          -2.14660104212976      1.53978364449552      1.53115199647744
  H           1.05684505223795     -2.12659931592414      0.83760903498586
  F           2.37554510436600     -0.17784610069855      1.00683224585329
  F           2.46594769913096     -0.49794073460636     -1.12786905511780
  H           2.54320908926723      1.30890805943709     -0.30283746256799
