18
Coordinates from ORCA-job NEB_product E -38.527597407510
  C           3.22642888944517      1.11929259453478     -0.65333392932419
  C           1.74047391414887      1.03607229801980     -0.93188914498769
  O           3.56770983292599      0.26255920253951      0.38379400975853
  H           3.79562941950535      0.80103703693730     -1.53457453738773
  Cl          1.27877919810064      1.73724814197343     -2.47062255596871
  C           3.56055290415507      2.62122622797685     -0.36989488368548
  C           2.93122766392334      3.07581005808788      0.91548036014821
  C           1.90016422276481      3.89646595668320      0.97422773336174
  O           0.92853812987781      0.58260892827104     -0.19547182125612
  C           5.07800212684437      2.82621535459287     -0.32070097613123
  H           3.18865070742113      3.21102507152754     -1.21279696639058
  H           3.37625165812187      2.66789314986506      1.81263281438374
  H           1.44849781652248      4.30932509540860      0.08708369954448
  H           1.46374350030823      4.18760005823136      1.91327905062284
  H           2.87682868594724      0.28057254511311      1.06003670896428
  F           5.66406583797914      2.11234570533582      0.65973678594300
  F           5.64833110041580      2.43046994000104     -1.48441667236782
  H           5.33892439159269      3.88593263490082     -0.16386967522727
