22
Coordinates from ORCA-job NEB E -28.522071489990
  C          -0.02297322012266      0.23898458531300     -1.34167351225820
  C          -1.36950916786629      0.57509095396743     -1.28370613443594
  H           0.21851555216349     -0.79716929955054     -1.50166221064622
  H           0.65468967315420      0.94017642124374     -1.80689647388393
  N          -1.76878673436182      1.90195892586000     -1.41395857596251
  C           0.36121327098172      0.26693431366938      0.61872595368835
  C          -0.58550932790978     -0.62573178362007      1.10553040799483
  C          -1.96039301878333     -0.29784639906643      0.89803362996844
  O          -2.21507517581121     -0.22961737761588     -0.69951209451869
  C           1.84707780659727      0.01715914751998      0.74537630447266
  H           0.12074223212118      1.32133667460608      0.73471461165095
  H          -0.33579554251748     -1.67371135716898      1.16890720143263
  H          -2.25312419790680      0.70850153427923      1.19229604728541
  H          -2.68613004389244     -1.04265539812610      1.20244683843663
  H          -2.76765930450366      2.03823571290120     -1.42780111272195
  H          -1.26074560800968      2.46268480539385     -2.07758959040057
  C           2.28708041113924     -1.43038704259417      0.56345771161867
  H           2.15128946039084      0.35445450318778      1.74201520938858
  H           2.37279185733591      0.64602862609555      0.02307644856478
  H           1.86823280369695     -2.06375262222580      1.34044631433700
  H           3.37149913916205     -1.49683846112054      0.62141797620326
  H           1.97256913494229     -1.81383646294872     -0.40364495021418
