22
Coordinates from ORCA-job NEB_reactant E -28.549066431760
  C           1.76953886554325      0.38827389861226     -0.15705886163230
  C           1.44066667851542      1.38392555674127      0.66483618706240
  H           2.08538865613407     -0.57757376196512      0.18169148045273
  H           1.74144220100378      0.54441399679854     -1.21839701283059
  N           1.11012680190189      2.65955569910471      0.22395279211334
  C           4.20869253831040      0.05109403773492      3.74488643369854
  C           3.44384617307156      0.21854470063987      2.67987272263158
  C           1.94438681606851      0.24259618564651      2.71264276480626
  O           1.39749831132445      1.35438450291952      2.03080054847286
  C           5.70278141545855      0.00277226065572      3.71939026873761
  H           3.75655359024065     -0.09320864142545      4.71853114262409
  H           3.88172593228712      0.36937773860956      1.70275797678082
  H           1.58589749812307      0.34255086885095      3.74086492624113
  H           1.53914750630224     -0.69039422467324      2.29329070259505
  H           0.61287894028880      3.19882408546787      0.91667519112436
  H           0.69848235826035      2.69672804089892     -0.69469293135733
  C           6.21893528407465     -1.34709210859600      4.21762737719944
  H           6.09561899813800      0.79292938544016      4.36569294597777
  H           6.06169125544650      0.18379085984649      2.70489439621045
  H           5.88015401138787     -1.53358419264936      5.23438543571126
  H           7.30615266938609     -1.36592256828646      4.20726537930534
  H           5.85249349873278     -2.14928632037164      3.58109013407517
