23
Coordinates from ORCA-job NEB E -47.403174847310
  C           0.57247073803028      0.77213565767043      0.16831206472017
  C          -0.54468125144725      0.88285742799774      1.00789415769492
  C           0.59350289199614      1.57913004833922     -1.11629007635369
  H           1.54249238514921      0.81346488696786      0.66229225061866
  C          -0.41229728866124      0.78417246646531      2.48763879903079
  C           0.40167064357046     -1.05589239992872     -0.43811711342893
  C          -0.91631394751000     -1.09052814661370     -0.88705553718754
  C          -1.98079265764958     -0.76929417138300      0.03000988429786
  O          -1.74731598764928      0.68875391590168      0.50901181405975
  C           1.50914221469644     -1.34397799145605     -1.42618694973693
  H           0.62407503843880     -1.49608836059039      0.52911586820086
  H          -1.10855647003217     -0.98756674177049     -1.94493015043695
  H          -1.98152636817761     -1.34886061348903      0.95421365584896
  H          -2.97226330006804     -0.72859613013397     -0.40901412429597
  F           1.86267119027965      1.60195598412004     -1.62316219441404
  H           0.33041497698659      2.62121087310849     -0.89744158634763
  H          -0.06705984116396      1.18852560167198     -1.89343014420365
  Br          0.79779016851789      2.14553679018169      3.18225086718621
  Br         -2.14112981093522      0.97053946697041      3.32702012384471
  Br          0.34722930417716     -1.00030554638258      3.11171451046496
  F           1.13750355290752     -1.02687058118421     -2.70532617857002
  H           1.73120624975997     -2.41805828887635     -1.42027835309632
  H           2.42176756878425     -0.78224414758636     -1.20824158789619
