23
Coordinates from ORCA-job NEB_reactant E -47.430333353050
  C           2.09372080046792     -0.44916249126222      0.02973579617573
  C           1.52231209230013     -1.36821838292113      0.80341910143675
  C           2.01090850153538     -0.24063860227417     -1.44960725756029
  H           2.73340377039276      0.28444853017243      0.49864824979449
  C           1.72231877541008     -1.41631585712950      2.29267921497858
  C           2.39958166339333     -3.89272899157983     -1.18236040597392
  C           1.26598734625354     -3.37716875254490     -1.62822007239836
  C           0.23863360723331     -2.68658469899508     -0.78115230678428
  O           0.66542736788012     -2.38732699824380      0.53174155136781
  C           3.40521775345345     -4.58028696879863     -2.04527141623084
  H           2.67772397555570     -3.84981521564567     -0.13932003768780
  H           1.00031646632163     -3.45578468383839     -2.67325299221787
  H          -0.61419510160375     -3.35929831350753     -0.63007872245304
  H          -0.12941755387599     -1.78280975498087     -1.28054850918900
  F           3.07295819323880      0.53270385923006     -1.84211530357513
  H           1.10915764119657      0.31997536711723     -1.73081598785177
  H           2.07482790925038     -1.17062299613678     -2.02429772541894
  Br          2.87075012531431     -0.06922773938286      3.04755232534460
  Br         -0.03109608640513     -1.27376719847044      3.15655389707864
  Br          2.46755871607730     -3.16711556784569      2.75587065009698
  F           3.02298176179131     -4.60025765251078     -3.36173394596216
  H           3.53585061537169     -5.62319279796257     -1.73200243793021
  H           4.37397165944714     -4.06680409248885     -2.00192366503997
