19
Coordinates from ORCA-job NEB E -36.589690853120
  C           1.07252274246380     -0.15054110008689     -0.60891697590414
  C           0.99494504725897      1.13900766205601     -1.18468112145824
  N           0.33061494107284     -1.17721198239440     -1.32473750910864
  H           2.07151962642279     -0.51339623308337     -0.38113146230635
  H           1.88896647609489      1.74458153129042     -1.29126293105317
  C           0.06459607704533     -0.02801620895389      0.90096328138220
  C          -1.17958019779042      0.40545973291331      0.40571269396760
  C          -1.22308648457876      1.64169959966310     -0.35030171760635
  O          -0.14293735988192      1.72889579773315     -1.41521792023332
  C           0.10926914688652     -1.35933146821222      1.62727113639650
  H           0.67387681421046      0.70877318191007      1.41951478299374
  H          -1.98714521159123     -0.29753721628368      0.28816111897966
  H          -0.99353063733135      2.53112266066880      0.24093003753237
  H          -2.15117386114092      1.77842810265741     -0.89921799273217
  O           0.93986352793266     -2.19829016693835     -1.57370041329915
  O          -0.80694823674446     -0.92606505938264     -1.65078142131220
  F           0.00706105341103     -1.13614930854415      2.97893244332935
  H           1.05799490035809     -1.88456243387563      1.47290225051484
  H          -0.72682836409834     -2.00686709113706      1.34556171991748
