19
Coordinates from ORCA-job NEB_product E -36.621171469620
  C           1.59363644683453     -0.42231525622407      2.30133559162185
  C           1.17327282456875      0.56002417597773      1.21528546871152
  N           1.52188665039572     -1.82139651006413      1.80814519499202
  H           2.64479135482838     -0.23427331691323      2.55475871242766
  H           1.14651551662623      1.59796872690896      1.59472481453214
  C           0.70450178481241     -0.22389850497744      3.54978350339761
  C          -0.75501830829524     -0.17171422408460      3.18729754981273
  C          -1.53353776310007      0.85753223893043      3.45990062125753
  O           0.91138282097859      0.27880994940362      0.09007481030221
  C           0.97335112860044     -1.33380497022173      4.57799441741633
  H           0.99244129187694      0.72667382550085      4.01330032502168
  H          -1.14248520148754     -1.04864524697703      2.68858157946211
  H          -1.16585623206930      1.73579438887794      3.96579997755677
  H          -2.57712056826136      0.85823922840499      3.20012824337452
  O           2.54926750307860     -2.45310008544148      1.85722218563296
  O           0.45962098591873     -2.22771388969925      1.42043231689819
  F           0.51604897199997     -0.92976058098747      5.80246960073685
  H           2.04590242392574     -1.53033326573632      4.69106318597971
  H           0.44269836876845     -2.25898668267776      4.33060190086561
