19
Coordinates from ORCA-job NEB_reactant E -36.626370401820
  C           1.22031047491859     -0.59528443580375      0.18192742978799
  C           0.72909210264323      0.07839269781197      1.23746360116951
  N           2.49352916370314     -1.21022791038212      0.15308635578756
  H           0.65096869430179     -0.71122179331776     -0.72447096720546
  H          -0.27003019727543      0.50416727305771      1.15313943569263
  C          -0.08576888284464     -0.46112140984857      5.37764942496116
  C          -0.22182876819614     -0.07492438733327      4.12081882612715
  C           0.69406139990703      0.89669329165545      3.43766837196441
  O           1.38617016378567      0.27824951529360      2.36179744298118
  C          -0.98790085006423     -1.43506477161030      6.06181489592261
  H           0.70619045757108     -0.07644732163030      6.00432874358875
  H          -1.01495602907991     -0.48495666349516      3.50985678337378
  H           1.47314436027773      1.24215254699933      4.11973856989841
  H           0.12136434442624      1.75872552678584      3.06715200992752
  O           2.78519567381729     -1.79661343685395     -0.87442014885808
  O           3.21518043432044     -1.12957846066175      1.12586467876138
  F          -2.01057380776265     -1.84805161407745      5.24842697612371
  H          -1.44933303423634     -0.98465881452629      6.94951717103537
  H          -0.43311570021289     -2.33362983206324      6.35944039896042
