21
Coordinates from ORCA-job NEB E -33.649576986350
  C          -0.69230706238722      0.06183419185780     -1.30047689361368
  C          -1.35272211460631      1.26876616611899     -1.10031542267673
  C          -1.44756335206588     -1.13195415203150     -1.24323413701953
  H           0.13957427712136      0.04091118431853     -1.99156308692601
  Cl         -0.50992966608925      2.69546349153195     -1.74446575559251
  C           0.19669280984114     -0.16054034771449      0.63957163821149
  C          -0.37457453058301      0.88104666088976      1.35177067614388
  C          -1.76742435497245      0.98091364143099      1.42590705732597
  O          -2.23102679028943      1.47485004194706     -0.23964104762534
  C           1.67561648979873     -0.19669491557488      0.37895449129735
  H          -0.27519833489705     -1.13206094873625      0.72709578986954
  H           0.20600355615640      1.78588284256328      1.48553871271908
  H          -2.21297719381395      1.80965496707435      1.95484449753811
  H          -2.34808241455449      0.06777140553634      1.43909272709180
  N          -2.04611677719361     -2.10857665342269     -1.20935606833917
  C           2.13324937845603     -1.48159442547160     -0.30080382381663
  H           2.18292773293319     -0.10956913469024      1.34524616809925
  H           1.97092994406420      0.67378745931206     -0.21173066085801
  H           1.87403179726054     -2.34555193807430      0.30684636025156
  H           3.21163990702326     -1.47101186649814     -0.43791348576273
  H           1.66725669879780     -1.60332767036700     -1.27536773631770
