21
Coordinates from ORCA-job NEB_reactant E -33.686747018110
  C           1.63683558639001      0.03495470158123      0.10902723283580
  C           1.45079757607709      1.21855575369381      0.71701959061896
  C           1.76260355475246     -1.21627762859969      0.72231625749578
  H           1.66568552714806      0.01035173015672     -0.97035856032478
  Cl          1.24531497540692      2.62935035074482     -0.26252015730002
  C           3.82088984663891     -0.75666835358451      3.20099283342106
  C           3.24148536078862      0.41939463174066      3.03167967948007
  C           1.75782078090874      0.63809346563099      3.01865183521462
  O           1.36665711008677      1.55822187599513      1.99670096817397
  C           5.29603866917009     -0.98330085047569      3.20829911302832
  H           3.21447338251813     -1.64497314837384      3.31589065663652
  H           3.82919616247813      1.31912664311764      2.90406420934108
  H           1.43683697675627      1.13748796410894      3.93906828950362
  H           1.21781200748878     -0.30741733366991      2.91576950701203
  N           1.86279482035204     -2.27870979183418      1.14842293597848
  C           5.69643253416223     -1.90296940919275      2.05440484925980
  H           5.58010945209406     -1.45379489935189      4.15329479173523
  H           5.82434455037160     -0.03164925049321      3.12723569049136
  H           5.16371944032489     -2.84802982312405      2.12075257721131
  H           6.76526319275375     -2.10048786438137      2.07921708285633
  H           5.44938849333245     -1.44065876368886      1.10167061733048
