24
Coordinates from ORCA-job NEB E -47.239897702080
  C          -0.13605568782573     -0.78347421511313      0.20413817392314
  C          -1.19450199611298     -0.72498555082520     -0.76919443110916
  O          -0.53358173991869     -0.70018694701654      1.49425346112465
  H           0.63099222807550     -1.54063699381650      0.01644798203128
  C          -1.14045346607498     -1.43620015696045     -1.99438050548155
  C           0.75602372076764      0.81384202457452     -0.21972161845743
  C          -0.25869218665835      1.74153674115553      0.01168713758310
  C          -1.47832257846739      1.64701868442088     -0.77926410283138
  O          -2.06705011582024      0.27735319042292     -0.68199966918344
  C           2.04965758215572      0.92581323831920      0.55350357845326
  H           0.96418205953533      0.55291902168726     -1.25792376605108
  H          -0.27092903015788      2.29905477667488      0.93619717449649
  H          -1.28920215323039      1.78442486776029     -1.85014692021125
  H          -2.27621113286815      2.30513402747845     -0.44382511192564
  C           0.31543211288869     -1.24067926455696      2.48861343230703
  H           1.03779035130074     -0.49989487319828      2.83637278547146
  H           0.83698089186273     -2.13049960212335      2.12505992169063
  H          -0.33431084698075     -1.51497274521500      3.31823336170681
  Br         -0.32118479304766     -3.14643429983845     -1.98990736452879
  Br         -2.75382778340462     -1.40886855462383     -2.98444308988404
  Br          0.33144423153114     -0.22879860804464     -3.52671121497231
  F           1.86123605859585      1.41905229798080      1.81866032359693
  H           2.71502418501122      1.62959014499422      0.03971147174939
  H           2.55556008884323     -0.04010720413662      0.65463899050189
