24
Coordinates from ORCA-job NEB_reactant E -47.274638921880
  C           1.66567913882161      0.33573224392123     -0.29908428171870
  C           1.45219432930723      0.85437604775865     -1.51426812849656
  O           1.46638268908314      1.00311737657314      0.86355515557414
  H           2.00512095817405     -0.68894410615775     -0.20261537526175
  C           1.55285918190587      0.06162104333344     -2.76663250990289
  C           3.53621908788155      3.13953217109867     -0.85138510687033
  C           2.38117962734078      3.39092915564245     -0.25835189765131
  C           1.03842029771999      3.12548910218889     -0.87098570309276
  O           1.04653011298597      2.11394843112731     -1.86176503055738
  C           4.87443171273215      3.37075188510033     -0.22806245843360
  H           3.58933641449903      2.74882468773737     -1.85791385244748
  H           2.35559523367162      3.79615122892127      0.74222112612746
  H           0.68206503594099      4.01235585391238     -1.40651838055756
  H           0.31613713806455      2.87419171369573     -0.08721192497488
  C           2.17568297078703      0.50257128852226      1.97687516969214
  H           3.24285411153245      0.72774941076327      1.89220721978262
  H           2.03899565368164     -0.57803677204481      2.08088909973617
  H           1.76798230192168      1.00991489922073      2.84845745422365
  Br          2.35176385200705     -1.68013404920455     -2.58483257708058
  Br         -0.24828824641388     -0.17732717599664     -3.53523394741678
  Br          2.60370007182100      1.05966855065198     -4.07496904781762
  F           4.77528637465004      3.70008762616967      1.10057755557599
  H           5.39837627274872      4.19731464231830     -0.72421591121342
  H           5.49549567913575      2.46791474474667     -0.28513664721855
