19
Coordinates from ORCA-job NEB E -48.652922544480
  C          -0.34577283295062      0.07892634868938     -0.85991755099122
  C           0.75080693055502      0.66594985040555      0.25494956843173
  C           0.06948553007912     -0.73333152728180     -2.06084591056253
  H          -0.84961602867123      0.98316418069912     -1.21172578288180
  N           1.94634852773738     -0.38604549640813      0.24040582088469
  C          -1.11019399683966     -0.55574598993318      0.25895889999854
  C          -0.25186780713897      0.24506192630483      1.38035699291681
  C          -0.91215202422056      1.34610362954974      1.97785807369066
  O           1.12487371846972      1.84088731685579      0.11329192604144
  F          -2.43113412639764     -0.28530481727375      0.31752512459154
  H          -0.97342995108708     -1.63280092275658      0.37388445215389
  H           0.07620850783300     -0.49418589002935      2.11161777918428
  H          -0.72897923856802      2.33685946477525      1.58812937717630
  H          -1.64669984550006      1.21090835809907      2.75337698233639
  Cl          0.70106523795117     -2.34274993797456     -1.64789518130493
  Cl         -1.39539891164614     -0.98215205495001     -3.07453218038295
  Cl          1.27670548459222      0.15069895353305     -3.01748921940262
  O           1.82524811765985     -1.35564920535044      0.94450516422595
  O           2.87450270814250     -0.09059418695401     -0.44245433610620
