23
Coordinates from ORCA-job NEB_reactant E -40.033969316930
  C           2.23647673778476     -0.54639095252630     -0.06320052594254
  C           2.51082677424888      0.02698718698065      1.09870247930303
  C           0.96657519700487     -1.28763050959553     -0.34489072674667
  H           2.95336259455742     -0.49131380128042     -0.86674251394609
  I           4.39486582737239      1.03178653604942      1.34568787381864
  C           3.41422136470315      1.12207113406943      5.11266014401636
  C           2.50937731954838      1.08975636183468      4.14929670180300
  C           2.08957158384732     -0.15774478595288      3.43138453954625
  O           1.63414320787479      0.10508435310077      2.11464305656161
  C           3.78125471932494      2.36504281528057      5.86444775595228
  H           3.96648156015028      0.24666683797923      5.42140992403219
  H           1.98570825209576      1.98776621831211      3.85051257192415
  H           1.21844503630801     -0.58245411054369      3.94615363160388
  H           2.89105789779953     -0.90541468003708      3.43233799980431
  C           1.25707166323100     -2.68197661623670     -0.89570635530117
  H           0.38931368907691     -0.72348644899237     -1.08307436351925
  H           0.37146668915792     -1.35507864407601      0.56665029785687
  H           1.83659124581653     -2.61654197458265     -1.81364035923188
  H           0.32734357347583     -3.20283611378816     -1.11069828505987
  H           1.82174904655634     -3.26759518636232     -0.17368708779918
  F           5.11666279067346      2.59964539483235      5.78615297493178
  F           3.16859623030790      3.46570808487079      5.37232741800098
  H           3.52943699908364      2.29664890066408      6.93837284839133
