16
Coordinates from ORCA-job NEB_product E -35.860964801170
  C           2.13669823062611      2.10226088406717     -0.41853525215575
  C           0.98683770949351      2.35400914906681     -1.34898463224254
  I           1.57956979821113      0.36389663019162      0.74435118645991
  H           3.04232758345307      1.82858467085653     -0.96028476353944
  I           1.14562307753449      1.25831456144345     -3.19075791676899
  C           2.36832542778524      3.29463247096796      0.49820158682520
  C           3.54275374985759      3.11053957413962      1.41347225168202
  C           3.50579733525476      3.38643337810261      2.70324166061535
  O           0.04569352550680      3.03289184832560     -1.12050767718249
  N           2.63912285738485      4.49212067176041     -0.37461195785592
  H           1.46816320339856      3.53869458700907      1.07389786051619
  H           4.44480477292087      2.74704810420041      0.94001696011162
  H           2.61554072961309      3.75591708428869      3.18380089524096
  H           4.36959357144488      3.25047300247728      3.32915635032842
  O           2.70402903572487      4.29170053068655     -1.56364598288658
  O           2.77801939179017      5.54468285241621      0.18048943085204
