19
Coordinates from ORCA-job NEB E -41.652721295580
  C           0.62256605028712      0.09765711797303      0.93314537257293
  C          -0.61969890030816     -0.57889807481157      0.84325135313045
  C           0.57603686834061      1.42219201216700      1.47006369428455
  H           1.47627416475281     -0.47195073783624      1.29791514375308
  C          -0.68875610059274     -2.06493303677684      0.97625594784976
  C           0.97507762506329      0.49950824210245     -0.87665813025651
  C          -0.19151990438313      1.17266379566741     -1.28354940753724
  C          -1.42689216392739      0.45897345242163     -1.22066924114882
  O          -1.63954886510165      0.01057405522816      0.29813756091465
  C           2.20197729064261      1.23429804787532     -0.85305976747842
  H           1.12119598759678     -0.52289418230266     -1.22465944607146
  H          -0.20696521646952      2.25196925249532     -1.23985857003745
  H          -1.44833336322777     -0.50511362776894     -1.72808718683948
  H          -2.32070776268041      1.04074714620775     -1.41460803945088
  N           0.48892771101795      2.47477412827330      1.90423957476105
  Br          0.21499101538214     -2.70606600836934      2.57563264804083
  Br         -2.53517215698885     -2.64387408963234      0.98424570511777
  Br          0.20971350888833     -2.97562537920520     -0.61404440811462
  N           3.19083421170796      1.80599788629177     -0.82769280349017
