19
Coordinates from ORCA-job NEB_product E -41.684427423080
  C           2.64320966579969     -0.20805380317607     -1.34739520899868
  C           1.28641029073102     -0.85976968390247     -1.17385556674067
  C           2.76518759286030      0.81453542061701     -0.32642587322598
  H           3.46703194125595     -0.92111386781987     -1.22639337930812
  C           1.31505730159095     -2.35894241045585     -0.89611698318283
  C           2.71828007371247      0.43504649223880     -2.76680037848534
  C           1.61260953276301      1.43007242334670     -2.99753563612374
  C           0.74115970042737      1.32087351422311     -3.98170358784592
  O           0.24468433139985     -0.28381164123534     -1.26680769612826
  C           4.00021359008856      1.10034603117540     -2.89589978550916
  H           2.67248245739243     -0.36472007432709     -3.51756764915780
  H           1.58026430898705      2.25453224831311     -2.29893261732684
  H           0.76606105413359      0.50231000237805     -4.68352684842331
  H          -0.03731169963615      2.04889790627354     -4.12322741721561
  N           2.84734661131975      1.61628789579056      0.48017137926046
  Br          2.35562013985807     -2.71358980570004      0.72326879424435
  Br         -0.48479239110666     -3.02843602209581     -0.69269051302931
  Br          2.16492793517184     -3.22237785766407     -2.43238073169069
  N           5.00555756325091      1.63011323202033     -2.99958030111256
