20
Coordinates from ORCA-job NEB E -32.877892232350
  C          -0.22276422003188     -1.43513039337590     -0.06350717556064
  C          -1.01688562258591     -0.27855484159865     -0.14019804260207
  Br         -0.78567079812688     -2.83808771929183      1.13382733200750
  H           0.13629106657174     -1.87829462521127     -0.98568103568010
  C          -1.12403603707828      0.49648406435041     -1.43479993886200
  C           1.32331363469241     -0.72727227907809      0.82496485089886
  C           0.79672392791426     -0.17152194902127      1.99381372571387
  C          -0.15670784316742      0.87016158376517      1.84979269302904
  O          -1.40346512336100      0.27605045463044      0.96657151853215
  F           2.13477566806413     -1.79558107917638      0.94922670427672
  H           1.69351154305854     -0.08827025485102      0.02719744041026
  H           0.73744177593865     -0.81697691144332      2.85802674679722
  H           0.12899118671382      1.70934340301163      1.22169202485404
  H          -0.65789980809651      1.18361357273915      2.75669292813601
  C           0.20707896567460      0.97412314990069     -2.02009329732963
  H          -1.76436356735391      1.35833504275306     -1.23908940689437
  H          -1.62471856894832     -0.13718045072513     -2.17126357335931
  H           0.71666649032574      1.64853101107731     -1.33557476108495
  H           0.01927182792181      1.51370971466814     -2.94516129718923
  H           0.86244550187440      0.13651850687686     -2.24643743609336
