20
Coordinates from ORCA-job NEB_product E -32.925648012910
  C           2.69291027910734      1.27929929318325      0.80517838182412
  C           1.80105944146379      2.40980795957720      0.30393340734425
  Br          1.49306399210963     -0.24109954014263      1.14251475808504
  H           3.36574941889076      0.94095597626342      0.01249179385562
  C           1.22906199329495      2.20453021381045     -1.07425526845793
  C           3.51293806509938      1.66139708063720      2.04156347547960
  C           2.81363506779552      1.39674529158105      3.34161701943750
  C           2.01833274620474      2.26871368908677      3.92959900021863
  O           1.61810169298181      3.40219163848543      0.95781591456224
  F           4.70094079174473      0.95685125940229      2.00098604461766
  H           3.78263618459750      2.72298652587384      1.94940468433895
  H           3.00044789639949      0.41511740230364      3.75432552704649
  H           1.83297702846227      3.24140548566514      3.50506325330047
  H           1.50823127240945      2.03117714724129      4.84645033567423
  C           2.18378309703684      2.83145900770167     -2.09685035075107
  H           0.26489352501127      2.71209823454932     -1.12850767562629
  H           1.09202370188987      1.14585325007236     -1.29348181542044
  H           2.32797367753498      3.88727734714794     -1.88056071789593
  H           1.76504821301027      2.73503019346406     -3.09483765758518
  H           3.15349191495542      2.33820254409629     -2.08165011004798
