17
Coordinates from ORCA-job NEB_product E -41.888114938660
  C           1.63485276589309      0.47452875724088     -1.52616817255671
  C           1.00879762876964     -0.75336499458300     -0.88180238514955
  C           1.31500014755065      1.70626488367600     -0.66465574124400
  H           2.72436379653429      0.33787015598432     -1.50731170814110
  F           1.63905996098351     -1.08363672893997      0.26283277834433
  C           1.15242329525415      0.52858253521381     -2.99039065794066
  C          -0.16521716143043      1.18602281062404     -3.22762947296476
  C          -1.23534703474708      0.51098440202284     -3.60501530962854
  O           0.12173758369621     -1.41688911879831     -1.27876559370006
  Br          2.53155952413202      1.39387532196605     -4.10651778758725
  H           1.11912447688114     -0.50002974305349     -3.35973925453899
  H          -0.19195318057090      2.25950613093613     -3.11483501271095
  H          -1.22060597618910     -0.55882104455042     -3.72992138169785
  H          -2.17414122343986      1.00538671334293     -3.78129778287634
  Cl         -0.41971979505097      1.71653574760941     -0.23186822920895
  Cl          2.26467103542263      1.65676695152617      0.84960494986358
  Cl          1.71779415631101      3.22581721978261     -1.48341923826220
