17
Coordinates from ORCA-job NEB_reactant E -41.876107656480
  C           1.78191107778825      0.02615530858560     -0.01639101282472
  C           1.10717318641273     -0.25091413595917     -1.13352284165169
  C           2.11826343832199      1.35622856561632      0.52787522073447
  H           2.13238638046445     -0.80985008160262      0.56860308943260
  F           0.91517912676847     -1.54829831731342     -1.43864687498923
  C          -0.40613573475996      1.39774868801653     -5.21372344533290
  C          -0.60565286628456      1.25844582482325     -3.91522734018891
  C          -0.10754520052881      0.08496893204600     -3.13532180586077
  O           0.59143538430708      0.59971030505003     -2.00004038412710
  Br         -1.07117610486300      2.86408305316418     -6.18945992532884
  H           0.12595077611802      0.68462288530366     -5.82408218044473
  H          -1.13527959785396      2.00490016408798     -3.34209624399382
  H           0.55892482111681     -0.54165547667044     -3.73923359868441
  H          -0.95554762431817     -0.52628674679411     -2.79605528595917
  Cl          1.51232977373821      2.70940340797412     -0.42450160332619
  Cl          1.45791401647526      1.50243649922979      2.18999204814445
  Cl          3.90266914709719      1.51520112444230      0.65143218440096
