21
Coordinates from ORCA-job NEB_product E -35.872516835330
  C           3.08060735011407      1.68773054447393      0.90535707685107
  C           1.62785706778143      2.12066474752771      0.51216846643835
  N           3.34771440915878      0.32622741970405      0.42526610626837
  H           3.73808443412881      2.34370551389137      0.32008865858242
  N           1.29482208974045      1.80937595064283     -0.74777386565930
  C           3.33230298359660      1.91050592169132      2.40688247281646
  C           2.40433849919396      1.12119046418130      3.29005489450074
  C           1.56840924043842      1.67831419782768      4.14380650531382
  O           0.93152148347708      2.73377827088707      1.27744148980234
  C           4.79066968613195      1.60924210712069      2.76239932959948
  H           3.13503491041301      2.97412782642970      2.57866981239349
  H           2.48416026050913      0.04681977461556      3.21557197439891
  H           1.47178001868368      2.74751442061696      4.23004441936802
  H           0.93196378097133      1.08707375034343      4.77931277844527
  O           3.44743127948801      0.20543261321414     -0.78427631940825
  O           3.43718638978652     -0.58570624239839      1.20329400304188
  H           0.37485776648168      2.05108142250086     -1.07652281319062
  H           1.90757996213390      1.26974511496863     -1.34406268902741
  H           5.47061281194539      2.18094726377298      2.13314687184810
  H           5.00644669029238      0.54990426577323      2.64735350129682
  H           4.97291888553341      1.87912465221498      3.79897732632005
