23
Coordinates from ORCA-job NEB E -37.280793623260
  C          -0.50658624072541     -0.90444886156116     -0.79524935366038
  C          -0.68481947476814      0.41759270694326     -1.19298887758560
  O          -1.59376500482948     -1.65811766246784     -0.43383691664484
  H           0.29337867735270     -1.44956362394239     -1.29892616868770
  O           0.33701554813115      0.92258145976612     -1.96249870735965
  C           0.25196049326228     -0.50004117031241      1.06664662009037
  C          -0.78247884671350      0.27003617788757      1.58444605176564
  C          -1.05710877592264      1.51944380555297      0.98554653793727
  O          -1.51380747258466      1.20527370738909     -0.61666034232508
  O           0.40153187005810     -1.77478507495795      1.54981414743728
  H           1.16720708974041     -0.02149256224045      0.72655402110983
  H          -1.58498713654065     -0.25682169419083      2.07728238947825
  H          -0.20830498736579      2.16746004192689      0.79422630957847
  H          -1.92865482322808      2.05180592296914      1.33882604574029
  H          -1.32829728619903     -2.26913153943749      0.27121085394633
  C           0.28974842478091      2.30936903922701     -2.24169632477122
  H          -0.74324641210252      2.65037517834032     -2.33440047090160
  H           0.81988421791580      2.45202060392091     -3.18164699727052
  H           0.78613753659636      2.88192270200218     -1.45253541902839
  C           1.65503372466416     -2.37553145148859      1.31706977660986
  H           1.86705909288073     -2.46016403938947      0.24628898174054
  H           1.60433155206733     -3.37001513828283      1.75659406197149
  H           2.45876823352998     -1.80776852765404      1.79593378082935
