16
Coordinates from ORCA-job P E -25.461587281070
  C          -1.72071696946833      0.53903348360441     -2.06265099110677
  C          -0.00765344755008     -1.59245757488511     -0.91646648024451
  C          -1.18886148751054     -1.87310437873981     -1.79403271735752
  C          -1.95721376326039     -0.92119881545324     -2.30000966322972
  C          -0.41730240516120      0.82924597648140     -1.31783537594074
  C          -0.18134443780429     -0.23509889219570     -0.26297432979287
  H          -1.39785521384118     -2.91113331694538     -2.00768819787705
  H          -2.82479342644804     -1.16357860015277     -2.89557731644824
  F          -2.78785974821917      1.05471789582294     -1.33323713842415
  H           0.09266273328757     -2.37779073144586     -0.16364894124440
  H          -1.73755098193320      1.08897309888381     -3.01497339333789
  H           0.90561088448883     -1.60565120178319     -1.52203310838152
  H          -0.49872122802641      1.81626631540579     -0.85824427755976
  H          -1.01078464222232     -0.24938539894683      0.44472101813236
  H           0.40771551831223      0.83636192492442     -2.03223866157228
  I           1.57119861535653      0.26493021542511      0.92921957438506
