16
Coordinates from ORCA-job TS E -25.348234361930
  C          -0.56483891185318      0.73054999267477     -1.26972925343438
  C           0.69769838048914     -1.50656940743611     -0.04919038964552
  C          -0.63266243817393     -1.48054562886969     -0.29921763665258
  C          -1.25736438565071     -0.39695696510090     -0.95122688364936
  C           0.00601873866859      1.36749357253625      0.75505780353231
  C           0.81627128705398      0.44054037377254      1.31796895184220
  H          -1.27846392048836     -2.21864469289261      0.15587345511194
  H          -2.33650634832652     -0.35426118652054     -0.97687132704318
  F          -1.23213640082290      1.79916475376136     -1.74078329745117
  H           1.12760983000644     -2.28790910147825      0.55586659433492
  H           0.47476110249026      0.76635006895818     -1.55955007852630
  H           1.39129022971123     -0.96221625424126     -0.66193739415749
  H          -1.02709515708290      1.41021296323949      1.05908417565058
  H           0.48873088361762     -0.25403666801993      2.06806439691951
  H           0.40517429973272      2.26353701879100      0.31117830623737
  I           2.92151281062851      0.68329116082570      1.28541257693115
