21
Coordinates from ORCA-job NEB E -47.931443663470
  C           0.26772580070966      0.98384965884344      0.63652459802064
  C          -1.11507924178299      1.15965634193757      0.23534303982055
  N           1.19482686009640      1.77783757042753      0.00533001700851
  H           0.41806131556943      0.92723355779958      1.71325711763612
  N          -2.10726867997935      0.76160607326860      1.23377141132919
  C           0.37047538055208     -0.79764617601243      0.12361555839550
  C           0.01316370726797     -0.80957769264627     -1.25588952912495
  C          -1.29638891680868     -0.56281379001015     -1.63526959102095
  O          -1.46099481390952      1.13379288857291     -0.96545795217651
  C           1.74619980686013     -1.31211521498614      0.47582123171428
  H          -0.35470124796968     -1.24285687816369      0.80242182419976
  H           0.80327863926529     -0.67240930938908     -1.98031021294562
  H          -2.12119148594309     -0.94338351024038     -1.04794122952137
  H          -1.51829467411408     -0.42289312977453     -2.68128550862971
  H           2.16366763754658      1.61017757324806      0.22720823799199
  H           1.02427911829234      1.93917521046252     -0.97726177416881
  O          -1.76806204393886      0.77306617285468      2.40304648292552
  O          -3.20040872995963      0.43866568951158      0.82038409043797
  Cl          1.73581332081826     -3.09661043707526      0.25683471823568
  Cl          3.02990194950429     -0.66017593960794     -0.56298207949532
  Cl          2.17499629792346     -0.98457865902059      2.17283954936755
