21
Coordinates from ORCA-job NEB_product E -47.951080363180
  C           2.30326563202769     -2.26978076926176      0.32686300572029
  C           0.93445027644562     -2.51048938194465      0.93509446414184
  N           2.22178589432345     -1.12126068203522     -0.55087731624432
  H           3.03652290285587     -2.05473269208940      1.11054131515087
  N           0.84600908096876     -2.21241371092000      2.45219203254999
  C           2.73900579040416     -3.50785576996833     -0.48514635739621
  C           3.89997764801365     -3.16877559605337     -1.37851186091354
  C           3.93948406454387     -3.47630494849126     -2.66014682958505
  O          -0.08880810880539     -2.71461890082805      0.36485614708128
  C           3.10627784138971     -4.65236502288912      0.45911498322512
  H           1.89315787126694     -3.84431969164583     -1.09529206150429
  H           4.71477954149762     -2.64955905141983     -0.89890329653129
  H           3.13073385337410     -3.99265381706858     -3.15051105738957
  H           4.78720767486458     -3.22491184848248     -3.27246982630456
  H           2.02733964623579     -0.27063864461755     -0.03736376788546
  H           1.51813712535250     -1.25056146552571     -1.26924847029518
  O          -0.19174134286562     -2.50344820702505      2.97861750673249
  O           1.81703923538763     -1.71469619100067      2.97119079820402
  Cl          3.39950607135890     -6.13648551586431     -0.46396922876334
  Cl          4.55331384821948     -4.28148316418482      1.41669627717803
  Cl          1.75505545314069     -4.95674492868398      1.60107354282888
