26
Coordinates from ORCA-job NEB_reactant E -56.251657649250
  C           1.02682941594328      0.06478969979804     -0.43396288417666
  C           1.41160359404589      1.24307222430651      0.08116602367879
  C           1.48621841842910     -1.23406863432402      0.10481224462851
  H           0.36841830829327      0.03204536865556     -1.28317444695845
  C           0.95572648830555      2.53383413754279     -0.53741488922775
  C           4.49438319424564      2.76575755767657      3.40198256088373
  C           3.52047299071893      2.00142265174134      2.93759206554033
  C           2.59798009771646      2.39937403643434      1.83034887890452
  O           2.26803331279317      1.22169687573265      1.12476865218256
  C           5.37830768669306      2.35756628749580      4.53790092133614
  H           4.72012360972987      3.74750656277105      3.01299608103555
  H           3.33389236814905      1.01841843267318      3.34770047626266
  H           3.07123347631912      3.14446640792337      1.18013727273485
  H           1.69370498657110      2.84197063439015      2.27743684782766
  Cl          1.04812264740059     -1.41786827321514      1.83028757643929
  Cl          0.75712585421755     -2.57811874769343     -0.78830359288295
  Cl          3.26741142388166     -1.39626862541969     -0.00581164151357
  C           1.96541430381920      3.01356463065718     -1.58494312124134
  H           0.81779408394414      3.30195844111131      0.22455486173980
  H          -0.00581966714862      2.36554407804536     -1.02141903758893
  H           2.94893823723649      3.16734433997576     -1.14729064778311
  H           1.63185027215736      3.95102709507262     -2.02226604404843
  H           2.06012383311228      2.27347077531047     -2.37479836062302
  F           6.67623189535949      2.36728159337780      4.18828527642987
  F           5.11476887980526      1.13608954940714      5.01193250218547
  F           5.26851028826113      3.20552290055330      5.57868242423447
