21
Coordinates from ORCA-job NEB E -45.302920305640
  C           0.56025079025173     -0.30514551311578      1.10916477601103
  C          -0.73345179564608     -0.80752308039065      1.25119718162997
  Cl          1.06935406110120      0.89077317352049      2.26473803144852
  H           1.36175576570607     -0.97166900340647      0.82257821065588
  C          -0.99744188140239     -2.20141670846586      0.66575895978754
  C           0.28751411418011      0.93836935672822     -0.58254218779589
  C          -1.10776172830463      0.98572086408487     -0.71677797375010
  C          -1.89068262261204      1.37499532768353      0.35140990296584
  O          -1.71736071627335     -0.08232056510487      1.53384390040099
  O           0.99457527000960      0.38106841847804     -1.57596439752828
  H           0.77865396212632      1.74160243592948     -0.03850039057001
  H          -1.53672801338095      0.36744519166569     -1.49355581325303
  H          -2.96408778523154      1.34668842359407      0.26546501899633
  H          -1.49980464980735      2.08236393700975      1.06689963923446
  Cl         -2.72699353598450     -2.52054579183628      0.58854358464883
  Cl         -0.30318200443767     -2.38152859591104     -0.96287860921761
  Cl         -0.22284341144562     -3.39935329146039      1.73218744163654
  C           2.39083295814861      0.60358259683697     -1.56196991929789
  H           2.84608137912385      0.22089187634781     -0.64476686389733
  H           2.61870619492981      1.66934117020375     -1.65638286866422
  H           2.79261364894883      0.06665977760866     -2.41844762344158
