21
Coordinates from ORCA-job NEB_product E -45.337198659730
  C           2.71802067868538      0.58217831004168     -2.08161241868958
  C           1.45534107380619     -0.15877784075918     -2.46245849837191
  Cl          2.47156198199673      1.19370402085954     -0.43137541130773
  H           3.58155211950613     -0.08419563943172     -2.06441742731793
  C           1.65743457437680     -1.66818018874671     -2.68355229374511
  C           2.98683131970560      1.75309470091440     -3.05326919337961
  C           1.90923546570332      2.79992141324893     -2.99039354881745
  C           2.07356860703072      3.97140959168531     -2.40647991631922
  O           0.37484567290858      0.33670775977374     -2.55826591009278
  O           3.08651344392091      1.14349498827139     -4.32535108429960
  H           3.95464206121550      2.20422562231565     -2.77344634198151
  H           0.97496995680943      2.52128550770591     -3.45456638767852
  H           1.28006927683100      4.69662927956165     -2.36291457450777
  H           3.00402015658747      4.24853762907349     -1.93743091733198
  Cl          2.89748732606304     -1.93292806580897     -3.91891814310224
  Cl          2.19742772013886     -2.35302257571894     -1.13085068591921
  Cl          0.14885288093209     -2.43267788588315     -3.17550671101990
  C           3.56848173604565      2.01026778293168     -5.32644359860435
  H           4.57024836922224      2.37828132406230     -5.07582964464245
  H           2.90127078068914      2.86574844467499     -5.47181004892931
  H           3.61342479782523      1.41999582122799     -6.23870724394183
