21
Coordinates from ORCA-job NEB_reactant E -45.340742560410
  C           1.51284216114959      0.11816502283542     -0.18657181827290
  C           1.68112215814751     -0.18570561007454     -1.47505378626919
  Cl          1.63848216761087      1.67153031572304      0.54604552492305
  H           1.26365599193939     -0.64965088485244      0.52508632776748
  C           1.52920100703581     -1.61397900888425     -1.95673806836625
  C           3.97768828141297      2.77098383082993     -4.07892008474650
  C           2.73160236632632      2.41629315441841     -3.78348890777686
  C           2.33729402726493      1.94664652134184     -2.42119827459999
  O           1.99683972070455      0.56142867833479     -2.54678809274751
  O           4.47209137718504      3.20125498410099     -5.25346140215099
  H           4.75966251764757      2.76730162123458     -3.33020340228722
  H           1.94553444404312      2.40179765344251     -4.52050215150704
  H           1.46399968557829      2.50116849311605     -2.05959295561237
  H           3.16597888773925      2.06416887526841     -1.71719255774399
  Cl          3.10118179148221     -2.15908001026241     -2.59840791721090
  Cl          1.01218672716925     -2.75544694947951     -0.72098759330187
  Cl          0.33871407047887     -1.64960645550714     -3.27769220161694
  C           3.59426437438923      3.25028814684113     -6.35633706783508
  H           4.18955457663168      3.59443887631623     -7.19985199781285
  H           2.77395412461599      3.95141775990164     -6.17587630828373
  H           3.18254954144756      2.26108498535532     -6.57616726454834
