17
Coordinates from ORCA-job NEB_reactant E -30.217108388950
  C           1.44454203588192      0.26047878199519      0.24024756986651
  C           1.49869611739925      1.57322365130103      0.07302781346712
  H           1.84794899525512     -0.24705936248713      1.09569157185524
  H           0.97587300862569     -0.34928082361068     -0.50842268941599
  C           0.93128827537364      2.28630151588719     -1.12996469877191
  C           3.12099713203965      4.43591165866461      2.51183332815387
  C           3.18902244229624      3.17407512889546      2.89727162693988
  C           2.63801579430963      2.03133441224807      2.10261765483461
  O           2.04994389862652      2.50090214279920      0.91047748686232
  Cl          3.76333770486405      5.72260796986347      3.44764061027936
  H           2.66024116268186      4.74537652367203      1.58818391466718
  H           3.65749567183170      2.89440325218287      3.82920179289301
  H           1.89075725518728      1.49624991934237      2.70892919448477
  H           3.45114465054537      1.32568860643411      1.87196702063784
  F           0.35956445729370      1.41735090175734     -2.01509994036823
  H           1.72490055375996      2.82270566144926     -1.66263207724353
  H           0.15613084402842      2.99643005960562     -0.81997017914204
