17
Coordinates from ORCA-job NEB_product E -30.225903605360
  C           1.89651860216119      1.70782610969894      0.51548765822233
  C           0.75323425539755      2.35769838869990     -0.24949388630889
  H           1.53269508274961      0.76902819974394      0.93969353836084
  H           2.75162323610268      1.51113440655907     -0.13042068085097
  C           1.16531447272776      2.88565157726077     -1.61060258040345
  C           2.31493048508027      2.60530118645152      1.68280208691287
  C           3.32215630076596      1.95302062840773      2.56708344239016
  C           3.18588470457799      1.84943371899990      3.87624813614908
  O          -0.35089668197391      2.46215908527260      0.20347024323453
  Cl          3.05891380640514      4.11227596069663      1.01869422214125
  H           1.43602954925019      2.92593947154694      2.24711432479622
  H           4.20268215530310      1.57753085476844      2.06454085891317
  H           2.31741309720354      2.22903001614362      4.38855030522975
  H           3.93602542709250      1.37854454571018      4.48715064822277
  F           0.12030428307081      3.45272847465489     -2.27853820640718
  H           1.55085240189646      2.07038986711956     -2.23440550761273
  H           1.93791882218916      3.65400750826535     -1.48177460298974
