22
Coordinates from ORCA-job NEB_reactant E -43.482100534390
  C           2.47396365595031     -0.39688383466877      0.03145394157131
  C           1.47489324650327     -1.27971623511964      0.24187717793621
  N           2.71225144094957      0.20148203070397     -1.15734564250187
  H           3.15441043532501     -0.14797880332831      0.83303837683162
  C           1.29206090001963     -1.97208435108537      1.53432344350591
  C           3.19343980292224     -3.23376966050916     -2.05719891719192
  C           2.04859504440943     -2.63279928230863     -2.33714424835759
  C           0.81513557161487     -2.77135272202649     -1.50294009705038
  O           0.55627571662681     -1.57934201582036     -0.74454487174887
  C           4.45407319303002     -3.05160555393133     -2.83651339988777
  H           3.28715015027804     -3.92091127644382     -1.22784355799933
  H           1.98273528529128     -1.95237258632881     -3.17468470663667
  H           0.89491990761759     -3.63970055129523     -0.83896690287357
  H          -0.07467026411558     -2.88152004066819     -2.12648023343731
  H           2.01643830284524      0.08944242262487     -1.87667108229726
  H           3.28683337752168      1.02345226211458     -1.18984096640018
  Br          1.63434781884976     -0.83027739196276      3.08057005383952
  Br         -0.49903493129068     -2.68243432304620      1.69147720053331
  Br          2.57201400469691     -3.54008763786229      1.74292882414197
  F           4.32917944885223     -2.08244671784550     -3.80032643486672
  H           4.73634051389033     -3.97872149671826     -3.35066193435568
  H           5.27404737821204     -2.74077223447432     -2.17770602275472
