21
Coordinates from ORCA-job P E -24.511566351180
  C          -1.36175923265563      0.33552200712314     -2.39578724945393
  C          -0.08277356738376     -1.68348429815202     -1.05513306527204
  C          -1.45590380378354     -1.94604234571445     -1.58348120911178
  C          -2.07634487124862     -0.97046659391899     -2.22669993267343
  C          -0.78298430372237      0.77354402439518     -1.03744014707650
  C          -0.05180455133119     -0.35211038731743     -0.28039471229929
  H          -1.90651636812853     -2.91273668256474     -1.42061375492929
  H          -3.07483295424613     -1.05773142264158     -2.62355172262927
  N          -2.27469568663347      1.36351900915898     -2.87159446927159
  H           0.25317112786746     -2.49284745360713     -0.40625992758844
  H          -0.51132390558475      0.17156081955602     -3.09146075700639
  H           0.61859274476490     -1.61318840974622     -1.89362201946247
  H          -1.62247461220364      1.14025813829586     -0.44612020529692
  H          -0.56969121884857     -0.52051113889186      0.66928511630703
  H          -0.10501916933816      1.61334133432444     -1.20214154252089
  C           1.39222477935851      0.03651107290792      0.02926445898248
  H          -2.66666766443366      1.10019290815267     -3.76924318679116
  H          -1.78655202733512      2.24476547379094     -2.98983717614874
  H           1.94291596557126      0.22291626128485     -0.89085120111307
  H           1.89436875572715     -0.76167579281137      0.57235502217709
  H           1.42408056358786      0.93656347637579      0.63932768117860
