21
Coordinates from ORCA-job R E -24.434809592660
  C          -1.37162395119927     -0.23812742884970     -2.73755282837961
  C           0.13196431545553     -2.81427476132625     -2.19458756408638
  C          -1.12818200669703     -2.54144154318845     -1.86032151230935
  C          -1.86907215475257     -1.33772749515132     -2.15203049514371
  C          -0.32113886429742      2.28700437273793     -0.34693615652422
  C          -0.33355725956994      1.02259983827831      0.03216749577446
  H          -1.68022924981322     -3.28497860538298     -1.29722665997609
  H          -2.90848332131851     -1.33210632205116     -1.84856891046853
  N          -2.10992036872199      0.87447163705710     -3.06666906011757
  H           0.59910853332956     -3.74083100453289     -1.90997388609621
  H          -0.34063423423616     -0.18794432264451     -3.05433788849765
  H           0.73869044144594     -2.12783788288947     -2.75948704472983
  H          -1.22350022874795      2.86811546872842     -0.44145654377797
  H          -1.27236776786147      0.53297710089431      0.25622072722729
  H           0.59934900334260      2.80006528351937     -0.57572667007360
  C           0.87555034032502      0.16764716353591      0.18719128815174
  H          -3.01570544823426      0.93455017862858     -2.62562674935651
  H          -1.60792073204724      1.74716846796101     -3.09475060196023
  H           1.78624350697488      0.72276833858605     -0.02519165235348
  H           0.81874882546186     -0.68959496143159     -0.48250472639484
  H           0.93105062116164     -0.21554352247865      1.20593943909227
