21
Coordinates from ORCA-job NEB E -41.849011884620
  C           0.64432504794062     -0.56377636793952      0.81029885611963
  C          -0.46915621149824     -1.40651520039614      0.83058772849271
  C           0.67841966445939      0.60775178937406      1.74232635807206
  H           1.60928910702100     -1.05450871654605      0.76173858635772
  O          -0.25028004050032     -2.70491150730040      0.49986489334013
  C           0.33551217109505      0.23946827936505     -1.05803144400183
  C          -0.96676053600930      0.69810578560015     -0.93335790778112
  C          -2.00629853074235     -0.23273581134531     -0.69361617428090
  O          -1.66732228999487     -0.95740127561547      0.79610920220334
  C           1.46190931725189      1.19712662416681     -1.30569652464406
  H           0.48049364680069     -0.72987405351931     -1.52603769636045
  H          -1.13028191345821      1.72571501034911     -0.64649931670095
  H          -2.01490490673798     -1.12977844214973     -1.30623976562281
  H          -2.99335135895064      0.16394429741299     -0.50061043441689
  F           1.78236538877826      1.35560770088260      1.57459858807166
  F          -0.35788263404104      1.44485859966350      1.67548081722391
  F           0.72848178287267      0.18984181226064      3.02847719437029
  H          -1.10008323571771     -3.15968265932531      0.41328678789177
  H           2.41580646441816      0.78383783774810     -0.98952599603729
  H           1.29916566718301      2.14257002273650     -0.79629145109650
  H           1.52055339982990      1.39035627457770     -2.37686230120042
