21
Coordinates from ORCA-job NEB_product E -41.889917017700
  C           2.51802841504886      0.59153434343375     -1.62044272399149
  C           1.44046488033441     -0.48071170978001     -1.39052431060780
  C           2.53124455599376      1.54490367168749     -0.42752087945477
  H           3.51212061863898      0.12521824631217     -1.62432283388147
  O           1.64247718461863     -1.61427254148493     -2.07574607779887
  C           2.26056901658475      1.25833475571915     -3.00244891456953
  C           0.97917835157114      2.04721241754579     -2.99700138307194
  C          -0.17635588694554      1.56494169158315     -3.41107237921186
  O           0.48319513200078     -0.33072572750781     -0.70016681390497
  C           3.43731196016707      2.12382980936764     -3.45122097097709
  H           2.15014521935476      0.43410620569678     -3.71969956421229
  H           1.05159981996593      3.05808911586789     -2.62365798610655
  H          -0.27852892561401      0.55856130479551     -3.78419759092322
  H          -1.07456232427522      2.15546137945346     -3.38646767716689
  F           3.54328996288250      2.43000607269260     -0.50565339737427
  F           1.42418409077493      2.25693113614828     -0.25333104663370
  F           2.74596631206553      0.85865039986045      0.70713326224701
  H           2.46294354790241     -1.62619457407764     -2.58659841625797
  H           4.36632934363942      1.55743482361701     -3.44209243637330
  H           3.55696367963197      2.99287536065383     -2.81145180333400
  H           3.25623504565898      2.47111381841546     -4.46551605639503
