24
Coordinates from ORCA-job NEB E -44.888407781300
  C           0.92386167775110      0.78319040799047      0.49621789640212
  C          -0.39332621985534      0.60061416391219      0.99689708563001
  C           1.23532568162109      2.07610859091247     -0.00986922087528
  H           1.73297496219551      0.35490793238550      1.08048924892722
  C          -0.63103189400489     -0.34629598097189      2.14699488058995
  C           0.76795998391003     -0.28166102586287     -1.08573831095990
  C          -0.22698499166161      0.40656691943970     -1.79817995908497
  C          -1.51765736912847      0.45707386890724     -1.20696141574176
  O          -1.39364230932008      1.04808295306936      0.31386956473001
  C           2.13184250421384     -0.45418810544199     -1.69790909391082
  H           0.46900699930729     -1.21063860186964     -0.60498961906806
  H           0.07498035055020      1.21277898982408     -2.44913955311307
  H          -1.97370534545090     -0.49794456098411     -0.96224322486167
  H          -2.22126527174652      1.14356912534140     -1.66170304441523
  N           1.44821183071727      3.14825872614231     -0.34869988031987
  C          -1.76432686428490     -1.33369663357621      1.87356908534541
  H          -0.89600302635613      0.25552051471361      3.02216493294787
  H           0.29373221745852     -0.87671667640879      2.38076546732399
  H          -2.66812688315044     -0.79800998582898      1.59411574825567
  H          -1.97011422791139     -1.91881739706768      2.76574806324084
  H          -1.49730502436150     -2.01915187265372      1.07169734321995
  Cl          1.98137596530832     -1.69105154960926     -2.98823262455227
  Cl          2.79068999857720      1.02113777831535     -2.41848536446691
  Cl          3.30352725562181     -1.07963758067852     -0.51037800524325
