24
Coordinates from ORCA-job NEB_product E -44.937413193160
  C           2.42884876878245     -1.44633729253014     -1.50971437081772
  C           1.58261837066508     -2.51189554288745     -0.77079987308208
  C           1.71313311886446     -0.20229523514078     -1.34521997115353
  H           3.41031450884832     -1.33816515691859     -1.03774895499851
  C           1.94557968798666     -2.66931343579990      0.67960011654188
  C           2.57583433146302     -1.78869336944893     -3.00676861244382
  C           2.73781442690040     -0.55006257701829     -3.84524506384805
  C           1.89854549898501     -0.21135726893962     -4.80413631720724
  O           0.70160377807990     -3.09991840065120     -1.33061052294264
  C           3.76217842608552     -2.73009835514510     -3.21496174874816
  H           1.66998551227067     -2.32529359481153     -3.31647935700825
  H           3.59236572782138      0.06666094900364     -3.60605857913247
  H           1.04032584037818     -0.81458366739146     -5.04967846451280
  H           2.03274981376575      0.68863475971971     -5.37755412118340
  N           1.13305298908575      0.76905073424942     -1.18767157111674
  C           1.01070742508537     -3.62896686645985      1.40312787651434
  H           1.92357255488562     -1.67910650398867      1.14426337410108
  H           2.97655482556608     -3.03093447368759      0.73019836847145
  H          -0.01167805158941     -3.26319402666812      1.35753977301719
  H           1.30274047990155     -3.72966894994669      2.44472185154957
  H           1.04154074266232     -4.60776751791100      0.93174611544238
  Cl          3.85610757621511     -3.20915506430330     -4.92337972504549
  Cl          5.30204488486314     -1.95029544482091     -2.76931997484010
  Cl          3.59485876242766     -4.20214369850366     -2.22395024755691
