24
Coordinates from ORCA-job NEB_reactant E -44.933427659160
  C           2.37569036890106     -0.97617563308709     -0.53648653098175
  C           1.65063635801897     -2.08454197814745     -0.77485009160105
  C           2.67649832423153      0.07044682119396     -1.41600421486663
  H           2.79517587540169     -0.84786845556128      0.45180039897104
  C           1.40015668052257     -3.09192903724068      0.31415546565742
  C           3.42683948420776     -2.42559303716426     -3.41420591654032
  C           2.45029059421126     -1.57856898278168     -3.69959737990080
  C           1.09715075050683     -1.62631099711012     -3.05672431153891
  O           1.02599937072391     -2.44839258971567     -1.91300901355836
  C           4.79523951666979     -2.39151036083659     -3.98517027745681
  H           3.28997128509631     -3.21543785080615     -2.68766577287299
  H           2.58126191023114     -0.78771482115027     -4.42212157778809
  H           0.37788952762055     -2.06174576517492     -3.76026558960801
  H           0.77067225365857     -0.60595174988115     -2.82028894095610
  N           2.95521594818596      0.96287544028591     -2.08550864301215
  C           0.14422353832902     -2.72314091496953      1.10689927071437
  H           2.25899091101581     -3.13645236335247      0.98416565655351
  H           1.25903221084466     -4.06973143055884     -0.14802530626209
  H           0.26183524201099     -1.75030497557135      1.57866364790506
  H          -0.03956602484080     -3.46425342796784      1.88020186651910
  H          -0.72005679946473     -2.68728610480498      0.44847407001157
  Cl          5.20483288596100     -3.99818774480210     -4.65113350166771
  Cl          5.01258914227293     -1.18871182461788     -5.25807625649691
  Cl          5.95323064568320     -2.02931221617756     -2.66522705122341
