20
Coordinates from ORCA-job NEB E -39.939330622490
  C          -1.66752861949972      1.97850776418920      0.64400549604070
  C          -1.11343548534607      0.86440864562728      0.02321578620651
  C          -2.43191732433003      2.96465541690636     -0.22797421754918
  H          -0.94328789140715      2.49245778429806      1.27443005215672
  F          -1.55807463825664     -0.38429756038002      0.33454419790537
  C           1.19851006670091     -1.97791707832260      0.23190384494949
  C           1.42384157773572     -0.93902822436555     -0.57472756901479
  C           0.37424509844670     -0.37739337246414     -1.46151365420778
  O          -0.17602364845232      0.84616323655686     -0.86150141582433
  C           2.15170697678492     -2.54743313511878      1.19413728908275
  H           0.23521272846160     -2.47425523719449      0.23647374840623
  H           2.36995785658578     -0.41726201689186     -0.57146597190910
  H          -0.44175570664033     -1.08450021167199     -1.62809017784089
  H           0.79005339629144     -0.03275724168382     -2.40828672980900
  H          -3.19991194386036      2.44189582587933     -0.79345700763782
  H          -1.79222658314577      3.50727473656340     -0.93371884990024
  H          -2.91404253393866      3.69015256835221      0.42085277507179
  Br          2.26378535798342     -4.50046909172584      0.95639104602280
  Br          3.95011046235687     -1.83572357991799      1.08817197680028
  Br          1.48078085352968     -2.21447922863561      3.05660938105051
