20
Coordinates from ORCA-job NEB_reactant E -40.055256415590
  C           2.00023686701526      0.03063553547645     -1.15978605625319
  C           2.18857068664266     -1.15720853646789     -1.70888582549457
  C           0.82314586855996      0.37179861290991     -0.31023145120902
  H           2.72938829717567      0.79986338996034     -1.35612013474115
  F           3.30082275100391     -1.39851194899498     -2.45245601477422
  C           4.14093812663736     -3.95045639117174     -0.65121249212340
  C           2.84575441054714     -3.71359028323219     -0.52067018047834
  C           1.93229985697570     -3.49977776215081     -1.68891424316501
  O           1.34402616507219     -2.20641069400676     -1.63674456399460
  C           5.11282080587477     -4.12207239986956      0.44909779421429
  H           4.59178541362644     -4.03779230037598     -1.63320986754432
  H           2.38102533531157     -3.59500080886027      0.44917699642102
  H           1.08461254459848     -4.18819633899183     -1.64017907414418
  H           2.46572192097867     -3.64375458398325     -2.63570254443100
  H           0.20208116387741     -0.50463278241802     -0.15145515931175
  H           0.22460776814157      1.14490459014340     -0.78987359426927
  H           1.15721072652868      0.75812492574941      0.65158425993572
  Br          5.96340306379365     -5.89767012817476      0.29580154361496
  Br          6.52845086441207     -2.75659101989372      0.28463561844697
  Br          4.36029736322681     -3.98286107564773      2.23054498930106
