25
Coordinates from ORCA-job R E -31.676567511500
  C          -1.93518374666647     -0.43375478445445     -2.86798975846579
  C          -1.14682769375385     -3.18242301904633     -3.87623535539912
  C          -0.71987748876455     -2.58965925479656     -2.76495929391103
  C          -1.06848053482633     -1.26890019238507     -2.28774223247014
  C          -0.81691676498812      2.10246199141059     -0.09846783167586
  C          -0.27067028021309      1.03718506858617      0.49242600340390
  H          -0.03075648122718     -3.12760945446649     -2.12494973303578
  H          -0.57519704803702     -0.95015442261932     -1.37878574575674
  O          -2.26069872620775      0.79656325122983     -2.43108082491902
  H          -0.82394085468627     -4.17423476526481     -4.14250744754065
  H          -2.47475356649692     -0.68178350846999     -3.77045378578699
  H          -1.82665818964393     -2.70685470735233     -4.56177773515748
  H          -1.75633552296383      2.48912331967859      0.25137444035739
  H          -0.79346127739713      0.55556443386648      1.30955199407788
  H          -0.33344211596432      2.65628117145108     -0.88268797110453
  N           0.87542048255124      0.38031454173409      0.12308174346921
  H          -1.76631350265149      1.02437588928575     -1.61698409955118
  C           1.54547177630548     -0.43943530108445      1.10175524635110
  C           1.73051074851300      0.97124235424510     -0.87766311641412
  H           0.81161261900369     -0.90023030259089      1.76072086526240
  H           2.25040221805404      0.13781679120396      1.71442484880273
  H           2.09969569107783     -1.23035270471645      0.59323933674225
  H           2.21220976215154      1.89155065302592     -0.52485675443640
  H           1.14642762270407      1.19956731464722     -1.76867712712651
  H           2.50292287412733      0.25373563688237     -1.14994566571550
