25
Coordinates from ORCA-job TS E -31.655173554410
  C          -1.59466093308556      0.61627767413190     -1.30447469064935
  C          -0.16861746597686     -1.73321522176601     -0.48349814833267
  C          -1.51605324003302     -1.70810210199602     -0.62244062835529
  C          -2.22669312613369     -0.59314822072621     -1.09572724217767
  C          -0.90535946931885      1.06240557270815      0.61664315796127
  C           0.06557642456690      0.18905250704928      1.05608328595720
  H          -2.09671415972775     -2.53403660676390     -0.23145589631484
  H          -3.30714644796997     -0.60104317631458     -1.01758455410916
  O          -2.28872281082006      1.73340780860187     -1.67712321541256
  H           0.31407456235600     -2.58235250561478     -0.02818592069518
  H          -0.59516838125085      0.65756345174063     -1.70903992567861
  H           0.46817135383106     -1.07019851340389     -1.03726769328749
  H          -1.86854926997493      0.98704498396780      1.09218757983895
  H          -0.20830110121555     -0.59709677800461      1.74152512869824
  H          -0.63775775161020      2.05569027486592      0.30047427500865
  N           1.42183148021521      0.39037328045633      0.96476175253606
  H          -3.22029789996329      1.61617747638948     -1.45261769172324
  C           2.30520026262742     -0.66320278936415      1.39420280223285
  C           1.98789613188106      1.22685089500102     -0.06299502908433
  H           1.84929837263213     -1.22170086332087      2.20847332756540
  H           3.23819622635221     -0.22357448742948      1.75230343053761
  H           2.54349383776452     -1.36025908781261      0.58062227504369
  H           1.31574328288998      2.04579092162513     -0.29936768037403
  H           2.19423945951655      0.66381459341721     -0.98317902357518
  H           2.93032066244754      1.64348091256238      0.29768032438967
