21
Coordinates from ORCA-job NEB_product E -32.486964921730
  C           3.00079877491418      0.20789861998907     -2.05610685194696
  C           1.55389671646162     -0.21684423317639     -2.23315194263660
  I           3.20457622787557      0.39298731197978      0.10451613062443
  H           3.67647144437087     -0.60143024118940     -2.33832427801365
  C           1.29591050545695     -1.68129905253608     -2.00583100573183
  C           3.35891634227641      1.47943213384352     -2.85645169127697
  C           3.17677304083654      2.74375695452480     -2.06338415979930
  C           2.07849589049523      3.47305470210354     -2.10900204597145
  O           0.69625724282671      0.56260890147754     -2.55541925399794
  O           4.61634506622432      1.34129743560021     -3.48555399559794
  H           2.65811284263121      1.50168073482168     -3.70246431799310
  H           4.00074730365876      3.02230725719890     -1.42163106003819
  H           1.24402499702188      3.20122050005195     -2.73324114871430
  H           1.96502555678195      4.35639694495364     -1.50410356247439
  H           1.57770680436504     -2.21490589487508     -2.91406632042079
  H           0.23702515809475     -1.84698481811497     -1.82412726320035
  H           1.88232865767491     -2.07702461661848     -1.18077134260301
  C           5.76739585906917      1.45160464482890     -2.67567344149492
  H           6.59339260391400      1.11260973709551     -3.29904607477411
  H           5.71331473323302      0.81966462312518     -1.78420704108255
  H           5.95748423181691      2.48586835491617     -2.37335933285606
