21
Coordinates from ORCA-job NEB_reactant E -32.484083331430
  C           1.97105152196401     -0.12187076066480     -0.23756819641534
  C           1.49491863118783     -0.15721824242026     -1.47975836733017
  I           2.81980133060234      1.43472992680883      0.91850611417294
  H           1.92481369301101     -1.01995850070841      0.35084476333992
  C           0.92056273627930     -1.45974884661365     -1.98544629563058
  C           4.01836481032475      2.32330196241766     -3.79879246139915
  C           3.46718895774470      1.98912402150971     -2.63795113101906
  C           1.98858388603664      2.04888325876636     -2.41338632513115
  O           1.37949603545153      0.76156247655539     -2.46015683131342
  O           5.32205577422544      2.31246346415733     -4.14345419570011
  H           3.42113197687231      2.67726497019841     -4.62937848857768
  H           4.06262324472171      1.62501618381147     -1.81645000393091
  H           1.50594778522784      2.58936560684736     -3.23178987921840
  H           1.74984447619852      2.55391728150166     -1.47311491616409
  H           1.52576486164299     -1.81980252430283     -2.81540661848223
  H          -0.08507047933654     -1.28104413836004     -2.35970821092564
  H           0.88855994989743     -2.21538863593427     -1.20827494960663
  C           6.25019930839642      1.88672272365080     -3.17174797635105
  H           7.23066653979235      1.96245562878116     -3.63802297920563
  H           6.06554889923116      0.84963133053171     -2.87517625713636
  H           6.21504606052823      2.52629281346638     -2.28466679397527
