19
Coordinates from ORCA-job NEB_product E -49.321353405600
  C           1.58549993357793      0.83141423117178      2.08004477396894
  C           1.51851097932212      1.48356439849977      0.71889553375922
  C           1.19043923655502     -0.64742123824063      1.97067763653558
  H           2.63477348999703      0.85971515973502      2.42227246966665
  F           1.85099304783333      2.79631991716492      0.82886247172976
  C           0.74593370782399      1.59622940541961      3.12338273527715
  C          -0.72289893916801      1.29055289364768      3.08354483838294
  C          -1.60294322826649      2.08550656141700      2.50537578215519
  O           1.24510554300766      1.02511266445156     -0.32467369539847
  N           1.29743495761155      1.31760849557891      4.50668863468994
  H           0.90819777941067      2.67199418869600      2.97200767500231
  H          -1.02634260456357      0.37004006856620      3.56031265786713
  H          -1.31831221141210      3.01106707205660      2.03143979372263
  H          -2.64783045665546      1.83543987187031      2.47908561764519
  F           2.10381729183147     -1.33817355363385      1.28840373228579
  F           1.09718099545178     -1.20855671174941      3.18318654115356
  F           0.01447718288601     -0.83629987024076      1.37053252105285
  O           0.51511294557260      1.37808990324191      5.41083412190096
  O           2.47855034918449      1.10349654234738      4.58652615860271
