19
Coordinates from ORCA-job NEB_reactant E -49.311102744350
  C           1.57038685053903     -0.07114105329337     -0.09408934788898
  C           1.12287815481746      0.97857333627342      0.59439176721483
  C           1.78681612031465     -1.38681707515375      0.57188607013400
  H           1.78405064315679     -0.00131834667115     -1.14407597751729
  F           0.93642255763560      2.15011957616045     -0.02829237429709
  C          -0.58130145737653      2.63727116574525      4.74883437670341
  C           0.16746974964770      1.89922492389614      3.94044909291065
  C           0.36901046879827      2.17126371457133      2.49116781639311
  O           0.83625390576744      0.97204234035733      1.88165841596740
  N          -0.69824071082797      2.31833514083604      6.14710645529939
  H          -1.15054443334641      3.50767225348593      4.45933799563691
  H           0.69004257020769      1.03582064423036      4.33498305593811
  H           1.11880820526491      2.96702061790383      2.36797733880836
  H          -0.56124933667462      2.50418035674061      2.01378234593813
  F           2.65231743439512     -1.31729374757547      1.59904885319080
  F           0.65566946944929     -1.90817780748716      1.08072314995180
  F           2.27541401019297     -2.29238613052721     -0.28079113674898
  O          -0.06874248465753      1.37955085491284      6.57550668727884
  O          -1.43126171730387      3.02905923559457      6.79699541508656
