20
Coordinates from ORCA-job NEB E -33.580814230350
  C           0.06071142764709      1.55960748614170     -0.23165356808954
  C           0.43750007873723      0.86871349258656      0.84268642129528
  O           0.33790919266306      1.43221583018368     -1.55364682889933
  H          -0.59419221794094      2.40735925071103     -0.09201062907586
  N          -0.10985878906435      1.14495968448123      2.12250292912715
  C          -1.74989080177968     -1.18676156193841     -0.81716295068690
  C          -0.71915338620441     -1.35934326059405     -0.01435066820027
  C           0.48168575324296     -1.45513230183735      0.93298327662680
  O           1.25922844354788     -0.25878547955689      0.84794936697098
  F          -3.01656164051288     -1.13744328452812     -0.34620979347930
  H          -1.76960885587116     -1.13733831050292     -1.90191971647990
  H          -1.40637450436031     -1.31354720824762      0.88985510908517
  H           1.17394656340909     -2.25393231384963      0.63237473050893
  H           0.17554403638458     -1.60279847974690      1.96807025528838
  C           1.26546363496543      0.44188878759259     -1.92837409818390
  H           0.95660996215189     -0.55472056686348     -1.61869351116491
  H           2.25961294645609      0.67379771441395     -1.53595493132632
  H           1.31476154842847      0.45693198262704     -3.01876210076385
  H           0.56608439705985      1.53293915710897      2.76902446073326
  H          -0.92341778895987      1.74138938181859      2.05329224671413
