19
Coordinates from ORCA-job P E -32.429715606940
  C          -1.46663790723249      0.47451366889855     -2.28241311102703
  C          -0.03652033964057     -1.57311293323216     -1.14194955880168
  C          -1.39110312837144     -1.87045700832815     -1.70352434297111
  C          -2.08186598725444     -0.88817729975407     -2.25941173614385
  C          -0.92433781613230      0.83124809008063     -0.88850762261496
  C          -0.08440925047608     -0.29929556366955     -0.26357745132442
  H          -1.77033252319947     -2.87697819135760     -1.64177807972545
  H          -3.06662942033613     -0.99925383688871     -2.68024735350982
  F          -2.39070194482170      1.42724876842266     -2.65332051654838
  H           0.33567589537864     -2.40459046775626     -0.54453790395212
  H          -0.67438115923948      0.52543285676521     -3.04772660927592
  H           0.66533327508027     -1.42206276571046     -1.97074915763598
  H          -1.79464809542468      1.02563878683918     -0.25953323233234
  H          -0.51462697368249     -0.57897027829794      0.70091675053662
  H          -0.36135357578022      1.76654481358639     -0.94511640765411
  C           1.35356480548064      0.12805087671253      0.01373790567893
  O           1.90335000466335     -0.04958480672446      1.05972180218506
  O           1.99461447218906      0.69709608330948     -1.01989653541207
  H           1.43158966879953      0.78455920710474     -1.80098683947138
