19
Coordinates from ORCA-job TS E -32.328628734250
  C          -1.02894860815679      0.56651229140357     -1.42042142863738
  C           0.44631019545445     -1.59424176407768     -0.23897390488921
  C          -0.88973622314041     -1.64163391955304     -0.43968864626106
  C          -1.62068571500466     -0.59831675471123     -1.05518107380154
  C          -0.40571812048308      1.29036716085118      0.61443070270439
  C           0.34276471136739      0.33228567918152      1.22599659997559
  H          -1.46630073688254     -2.42772231545627      0.02667604018931
  H          -2.69991853550961     -0.63518689239264     -1.03007178042423
  F          -1.77879032850535      1.58861032084271     -1.86638551886848
  H           0.94216151119616     -2.34799814118884      0.34821156561152
  H          -0.00412132932938      0.66604128417107     -1.74550210337263
  H           1.09254975457298     -0.97198237331764     -0.83104368842647
  H          -1.43700264283215      1.41692550038338      0.89629253989540
  H          -0.11631518748197     -0.33260175659465      1.94051763759906
  H           0.03319578744650      2.14941549901098      0.12873718021980
  C           1.82040553131872      0.28038716425130      1.24337529502459
  O           2.43752226338262     -0.41173399322601      2.00699339402111
  O           2.47015540117223      1.06000550815000      0.35303730204759
  H           1.86247227141490      1.61086750227229     -0.15700011260737
