22
Coordinates from ORCA-job NEB E -44.866579548380
  C           0.64040267191530      0.73903376669727      0.21390577419546
  C          -0.50422689258263      0.68101974736124      1.01009887788775
  C           0.59032330826657      1.68047257015902     -0.96019136636881
  H           1.60601210698612      0.68844271413968      0.70260915016886
  C          -0.35425980522157      0.31392007074477      2.48809026394164
  C           0.50508806854076     -1.15620124214883     -0.63422755856121
  C          -0.75946099780544     -0.98356322147522     -1.22786491430013
  C          -1.89748680278542     -0.90458643887954     -0.44708795096875
  O          -1.66335304307441      0.68114539895139      0.50898163485430
  N           1.61911802529006     -1.36084022660973     -1.39473216027373
  H           0.54318650408347     -1.67026487402310      0.31896691581392
  H          -0.78841812663324     -0.62061790850639     -2.24587603906969
  H          -1.96641496230795     -1.49571551257246      0.45364786668862
  H          -2.84234996462207     -0.67862776344822     -0.91377401757348
  F           1.50909804520222      1.35929129396206     -1.93307545377764
  H           0.84778022602088      2.69481603530381     -0.62931166280619
  H          -0.39684782133442      1.68257529001163     -1.42755314538363
  Cl          0.89653350635839     -0.91574802891358      2.79012425522855
  Cl          0.13765510823138      1.79664487140283      3.35960437989927
  Cl         -1.88194746796210     -0.26276873183061      3.15806132890061
  H           1.65764411576745     -0.87675194911752     -2.27939537432488
  H           2.50192419766664     -1.39167586120851     -0.91100080417085
