22
Coordinates from ORCA-job NEB_product E -44.887178556490
  C           2.52967381895524     -1.55164990704814     -0.38114779833890
  C           1.46457372584454     -1.36484657699351      0.65833853373559
  C           2.40950011627109     -0.41431553711005     -1.40007369568039
  H           3.52909806416193     -1.55576548376368      0.05808462420671
  C           1.93009838437543     -1.54617503472806      2.11737762660729
  C           2.32112541217008     -2.97132835816134     -1.01927359677684
  C           1.22360310642662     -2.95019496106846     -2.04884615520762
  C           0.00129097714322     -3.39588075136502     -1.82870583135631
  O           0.32694487718059     -1.07466587782326      0.42261582634985
  N           3.60936039200720     -3.41258706112180     -1.51398977511235
  H           2.03651231440230     -3.65598427673810     -0.21086447077443
  H           1.50747859897577     -2.56182050902977     -3.01848686624958
  H          -0.29504477308577     -3.78967866970441     -0.87055588566910
  H          -0.75683191474580     -3.37778616009679     -2.59266088366308
  F           3.26152144740472     -0.60389111255451     -2.45562959088817
  H           2.68481669471894      0.54000744047052     -0.93986226704494
  H           1.39462981862368     -0.35912595961716     -1.80406146880055
  Cl          2.94402751609702     -2.97690879948632      2.34264744855506
  Cl          2.89405051997933     -0.08098688343144      2.45773994350664
  Cl          0.55149439460545     -1.61270849078006      3.21595594293617
  H           3.91273923686992     -2.83427486450361     -2.29002067469742
  H           3.56063727161849     -4.37373216534503     -1.82898098563763
