22
Coordinates from ORCA-job NEB_reactant E -44.888469283690
  C           2.09953833650639     -0.13863233764582     -0.13053549141456
  C           1.60169254142806     -1.22267979481860      0.46226958978180
  C           1.61342351840290      0.47871991532493     -1.40161967715049
  H           2.92018819161219      0.38723124458131      0.33050547314360
  C           2.17862061084190     -1.73193415340899      1.76757597697664
  C           2.16153244320523     -4.42741064374704     -1.43749096559998
  C           1.88570813914136     -3.14492756956925     -1.68329549149994
  C           0.58420574345831     -2.52221112813609     -1.30704414702651
  O           0.58538016382347     -2.01681362713828      0.04603649423410
  N           3.32454685236778     -5.06479209246735     -1.78060476472957
  H           1.40656801720288     -5.07134218127432     -1.00667417382469
  H           2.64514668516919     -2.49771525305504     -2.09764090817395
  H          -0.21426193727996     -3.26651234096169     -1.27995831564639
  H           0.30557859258091     -1.72379866936504     -2.00144290097277
  F           2.16047905897218      1.72737264434142     -1.54510118491838
  H           0.52512440598972      0.60976686278005     -1.40258488461071
  H           1.92206195521726     -0.09294731881739     -2.28739604700409
  Cl          3.40865943223511     -2.97612602335340      1.39096151000051
  Cl          2.95479422669397     -0.47316747536604      2.73186745480199
  Cl          0.91209583119405     -2.48799554566086      2.74803786119500
  H           4.10933121539293     -4.46761673060125     -1.99058867750657
  H           3.55968597584417     -5.89336778164125     -1.26067673005505
