20
Coordinates from ORCA-job NEB_reactant E -48.499197088440
  C           1.70781455915945      0.04063420625384     -0.04179353540284
  C           1.21159170812412     -0.24354647113848      1.16211888984354
  C           1.69060829065942     -0.96121987253012     -1.14888340262729
  H           2.14283410160157      0.99543443052345     -0.26914384900494
  H           1.23233097543596      0.50003774004770      1.95233838758599
  C          -0.21733085125217     -3.72281728523967      4.00254089474947
  C          -0.29044605412377     -3.03485340857631      2.87464431079887
  C           0.14179196598700     -1.61034307308263      2.74771201850144
  O           0.68014269200618     -1.43568734126258      1.45064422195284
  C          -0.66386059069947     -5.11812424687720      4.20416665724011
  H           0.18242663374946     -3.27371866518354      4.90467662056498
  H          -0.67366044977041     -3.46283942029922      1.95876580032731
  H           0.88199648796353     -1.34865722045081      3.51513661333257
  H          -0.73743587021457     -0.95823062533481      2.87439666844103
  F           2.40805286133991     -2.06598146910179     -0.87219128066109
  F           0.45179063426156     -1.39252770456745     -1.44971996045147
  F           2.19975359180384     -0.45473050426131     -2.28143858191129
  Br         -2.06659554242339     -5.14243749537283      5.59664371353536
  Br         -1.37808877324848     -5.98808350092656      2.62709536928005
  Br          0.85018362964026     -6.19440807261967      4.86429044390534
