14
Coordinates from ORCA-job NEB_reactant E -30.447844744210
  C           1.52391155590396      0.36436651118088     -0.01435572187473
  C           2.17517840242469      1.38049623487861     -0.57513052608175
  Cl          2.32174852581380     -0.82613246918882      0.93717648939618
  H           0.46359559868378      0.20968937832730     -0.12123107270205
  Br          4.03869474459441      1.61297230919782     -0.36408500783343
  C          -1.10219681365427      4.13633396880279     -0.48585938514659
  C          -0.46378275121765      2.97783155744762     -0.45355250221716
  C           0.31021559119374      2.45028630163753     -1.62536785285504
  O           1.70333363555456      2.36683356306492     -1.35639774180105
  Cl         -1.98314796434701      4.74844718728530      0.84838909103487
  H          -1.13124740471507      4.77256050439296     -1.35782215438769
  H          -0.45100716024204      2.38222699315365      0.44704193851505
  H           0.23984225935708      3.13950303933988     -2.46968538960266
  H          -0.06903821934996      1.46648492047956     -1.93062016444394
