14
Coordinates from ORCA-job NEB_product E -30.460492255760
  C           1.49757389307640      1.74348747795813     -0.22244893120180
  C           2.78130779363567      2.52468026810575     -0.02739903568041
  Cl          1.04643872434137      0.75187499064801      1.17289966802990
  H           1.65387623883340      1.06738900009013     -1.07183534748886
  Br          3.49320184083595      2.56260985420720      1.75846266790616
  C           0.38386882816477      2.73484492093426     -0.59334784595923
  C          -0.90925482835217      2.06410617321360     -0.91023789562937
  C          -1.57640724577304      2.27570163381086     -2.02962604264467
  O           3.33309942672940      3.10904686636123     -0.89760390591216
  Cl          0.13270290377016      3.85986177120462      0.79524868702456
  H           0.72715774674166      3.34930161045692     -1.43096534483668
  H          -1.28710079896588      1.40376241000625     -0.14377402321494
  H          -1.21233433075721      2.94279112003864     -2.79360844173340
  H          -2.51593019228046      1.78924190296441     -2.22376420865910
