20
Coordinates from ORCA-job NEB_reactant E -52.171857484920
  C           1.41799334736509      0.13860665302570      0.22201304152847
  C           0.73855593113462     -0.63901073661363      1.07129958106448
  C           2.48572403108208     -0.36426499288553     -0.66038061408108
  H           1.16255008681444      1.18409680409416      0.18120356059515
  F           1.01232008762680     -1.94692610065280      1.17092812919354
  C          -0.07585284974128     -0.90402040118207      5.24562503147282
  C           0.21578966693085     -1.20589554919479      3.99090670194125
  C          -0.75753414690211     -1.05072714702745      2.86134900171056
  O          -0.24306952324732     -0.19673067872310      1.83788402817770
  C           0.84261786184308     -1.05177463624716      6.40462439594509
  H          -1.05214245641395     -0.52838072547302      5.51979906722427
  H           1.19448191671156     -1.58065248036579      3.72460046500917
  H          -1.67400838300880     -0.55920094665115      3.18975713037882
  H          -0.99883047777220     -2.03607856068445      2.44228971676434
  Br          3.23975075433721      1.08493750586993     -1.71106071221450
  Br          3.96778578137288     -1.18951207265258      0.36245206882367
  Br          1.82806984526912     -1.73772646286854     -1.92892480838513
  Cl          0.98946222658267      0.52716747965064      7.23209721176541
  Cl          0.13432877371178     -2.22304544186669      7.55799169102564
  Cl          2.46450752630347     -1.60656150955170      5.96954531206033
