20
Coordinates from ORCA-job NEB_product E -52.185484954770
  C           1.70589529434593     -0.41238760896379      2.34867237906984
  C           2.75565939803656     -1.47258637490124      2.65157838710498
  C           1.44551424432528     -0.37868115866803      0.84411446599101
  H           2.19163216788169      0.54300047314399      2.59878955794961
  F           2.29342399489657     -2.73109054247886      2.48588796138781
  C           0.41707602333830     -0.49382779142103      3.20401038528699
  C          -0.41435309799167     -1.73319579337434      3.00794764700998
  C          -1.66902845576968     -1.68264115205740      2.59980884769468
  O           3.88879896502872     -1.28559177302802      2.91032681932089
  C           0.76055764263827     -0.32775572129211      4.69118519391853
  H          -0.19971249973546      0.37627906205879      2.94439800742196
  H           0.05370402037119     -2.67550262087903      3.24704680844062
  H          -2.15938909091726     -0.75245936095897      2.36221280917195
  H          -2.25122981220985     -2.57789987829123      2.47529437050518
  Br          0.20966744408537      1.06719084126048      0.39990678595520
  Br          3.13351549482461      0.01068470603251     -0.08367357021370
  Br          0.72599045814056     -2.01092712351847      0.08442393377161
  Cl         -0.74199885364995     -0.33306977274466      5.64080576355473
  Cl          1.80737825941371     -1.64623521380109      5.27101686204607
  Cl          1.59339840294711      1.22449680388251      4.98754658461205
