19
Coordinates from ORCA-job P E -37.829506218070
  C          -1.17745360395036      0.58073275974913     -2.36000970644265
  C          -0.41741255698220     -1.67636389570997     -0.57263997453563
  C          -1.11873888572755     -1.85689127760516     -1.88223329420809
  C          -1.46047320505244     -0.86105396064866     -2.68053888605426
  C          -0.83573964992268      0.77762614757640     -0.87958821758562
  C           0.16144440033801     -0.27579982463150     -0.42193484238605
  H          -1.34449797061200     -2.87567265101951     -2.15938154312554
  H          -1.95228118267767     -1.04419904031414     -3.62426615199312
  C          -2.38371237679463      1.43470945835650     -2.72519587298579
  H          -1.12919952882075     -1.85347632396386      0.24064765510518
  H          -0.34906252374844      0.93614593689861     -2.98662511402449
  H           0.37587256274649     -2.42061645489376     -0.47550747533670
  H          -1.74325226748239      0.66729744492856     -0.28059166712706
  H           0.46902184756093     -0.09056685574681      0.60959533854477
  H          -0.43504782944573      1.77987940972406     -0.71986552651538
  Cl          1.66098758836610     -0.14164594071990     -1.40088559557286
  F          -2.69413672759629      1.35391814209411     -4.02695403567697
  F          -3.48839875610337      1.08359152504498     -2.04779396919398
  F          -2.18093933409500      2.73680540088093     -2.46473112088577
