23
Coordinates from ORCA-job NEB E -42.483690041510
  C          -0.18813146327605      0.78978777920557     -0.38327507697780
  C           0.94102156758743      0.81148570849652      0.59835603766510
  C          -0.21480450231262      0.43614039903791     -1.69294913545043
  H          -0.99011435626494      1.44864835118314     -0.06633226045611
  C           2.31492263083394      0.40048321359725      0.15195802546464
  C          -1.29181665651083     -0.91831800378762      0.72381909048691
  C          -2.52862087822718     -0.96166387088237      0.05102106249488
  C          -3.51196318479993     -0.06640130151813      0.27777391030872
  O           0.70007866594014      1.19320969987578      1.72053167459649
  Br         -0.10717720188091     -2.35007478996727      0.57121844692537
  H          -1.16750056954034     -0.33674117778791      1.62672536268824
  H          -2.66276471805965     -1.72834785276622     -0.70089037014013
  H          -3.39697735065091      0.73362805914762      0.99058227547069
  H          -4.44857332328742     -0.12827293347619     -0.24536461640014
  Br         -1.70890927038751      0.90962664289557     -2.74480291832746
  Br          0.97999567645395     -0.67289901765399     -2.59337800198685
  Br         -1.77036108318639     -2.73493894128042     -3.16020230881383
  C           3.35583806398660      0.67711386816368      1.22948607230326
  H           2.56727360653199      0.92871328947511     -0.77018704371061
  H           2.29684871185425     -0.66834114513212     -0.07658716715148
  H           3.39076448327814      1.73884582525274      1.45977309152305
  H           4.33704599165608      0.35657008436268      0.89188595203551
  H           3.10392516026214      0.14174611355867      2.14083789745198
