21
Coordinates from ORCA-job NEB E -40.514918736950
  C          -0.31463557550202     -1.45229589445435     -0.26041778196458
  C          -0.71397754802812     -0.26183849548554     -0.88321893531552
  O          -1.09103657935396     -2.03555067590706      0.67065186089908
  H           0.30809581828723     -2.15691481986475     -0.79530283868505
  O          -0.03819440893291      0.07771258987818     -2.01338917552102
  C           1.05123603356213     -0.38940033951603      0.95526901001311
  C           0.19561104948365      0.46360270459828      1.63330881823103
  C          -0.46867018503868      1.47062596166610      0.89726072086776
  O          -1.41486883075418      0.59028908547919     -0.22243043079355
  N           1.61481899002768     -1.50952200591939      1.66142791456663
  H           1.68295832767529     -0.06020580999997      0.14025259096013
  H          -0.22453955474964      0.10998138942928      2.56435576969862
  H           0.12550833992809      2.04913284679599      0.20016485406010
  H          -1.22452335838510      2.05214832818202      1.40625790947441
  H          -1.71566743551632     -1.38479828410274      1.02904207133353
  C          -0.31356008937216      1.34461947373406     -2.58919916159991
  H          -0.34946512922961      1.20291503940762     -3.66847107240394
  H           0.48610131157930      2.04832904880345     -2.34425358096161
  H          -1.26834009444286      1.73441489917692     -2.23150140654231
  O           1.08016056634570     -1.86742683197046      2.68518247166052
  O           2.59298835241651     -2.02581820993082      1.16501039202256
