27
Coordinates from ORCA-job NEB E -35.502445019330
  C           1.10665775614427      0.11133311984839     -1.27196526058875
  C           0.60149652895557      1.34083934468994     -1.33655415802125
  O           0.90882277680440     -0.81166865658540     -2.25937307342960
  H           1.72823325687846     -0.19231644108431     -0.43520311559028
  C          -0.31181560801438      1.79446249686053     -2.43880770554457
  C          -0.77656804901319      0.30816537942204      1.59368414601256
  C           0.05831167695332      1.33532511921419      1.63784303133521
  C           0.01874623663030      2.47072994217045      0.65898989857547
  O           0.96711939276907      2.28024193403094     -0.39040762851957
  C          -0.70759130589076     -0.89194765634042      2.48305879901026
  H          -1.59680136860337      0.31253422261260      0.88607714649025
  H           0.91045309570106      1.32142920559656      2.30314260118288
  H           0.32207212487680      3.40300970095754      1.14317196212314
  H          -0.99017394363643      2.59393015061926      0.24449456523833
  C           0.86014485651784     -2.14848943136544     -1.82337301177383
  H           1.61360927615495     -2.34754800726824     -1.05333990297552
  H           1.05240153307249     -2.77419300028154     -2.69391064995368
  H          -0.12813195383884     -2.39122611984206     -1.41623799986103
  H           0.27044366584764      2.13477804780857     -3.29424752618712
  H          -0.93218186045763      2.62160678404422     -2.10149365565257
  H          -0.93685559102172      0.96680373240088     -2.76400579941294
  C          -0.66302897362747     -2.18488821013041      1.67071135952395
  H          -1.59244829584652     -0.90642711086691      3.12727707400872
  H           0.17142082805291     -0.82931443460437      3.12697487343030
  H          -1.51890438344229     -2.24396799195117      1.00153109239839
  H          -0.68073245322864     -3.05022775126089      2.32916371293758
  H           0.24530078126217     -2.22297436869493      1.07279922524365
