23
Coordinates from ORCA-job NEB_product E -35.824500203390
  C           2.52017418656915     -1.43115083570351     -0.64803302164063
  C           1.20982896150625     -2.02987655824702     -0.12541526186078
  C           2.22661517493403     -0.00701721964950     -1.13121224489032
  H           3.25779787223224     -1.38332556789671      0.15957788810470
  C           1.26748903524442     -2.53259946284279      1.29258164094939
  C           3.11521132956496     -2.23261099690278     -1.81207624610204
  C           2.23306228736238     -2.35405767402135     -2.99876712398201
  C           2.63629737202803     -2.06423629761466     -4.22369485459546
  O           0.21874958874357     -2.06098913777635     -0.80751544832381
  I           3.63533433109042     -4.24898466720288     -1.11884839684895
  H           4.07576336576053     -1.79486031023490     -2.08898835224379
  H           1.22710180677034     -2.70221002723874     -2.81000910880507
  H           1.97941016055631     -2.15922194402089     -5.07052742280389
  H           3.63669060766201     -1.71697260006176     -4.42781757320249
  F           3.38584356318321      0.60869368928892     -1.52777068532977
  H           1.80442541659621      0.60070978079824     -0.32427079735858
  H           1.55017756947678     -0.01573702530373     -1.99082757915409
  C          -0.04516156210974     -3.16206730984417      1.73665708875060
  H           1.52419936954816     -1.68200222099272      1.93157221003941
  H           2.08458881224854     -3.25374832563306      1.37620884749905
  H          -0.85723651920183     -2.44506871107347      1.64590771071099
  H           0.02283534940650     -3.49100168263292      2.76984885603308
  H          -0.27909807917249     -4.01886489519325      1.11031987505447
