26
Coordinates from ORCA-job NEB E -39.861112352460
  C          -0.35665145041789      0.92494489433971     -0.66800613542919
  C          -1.66505939476518      0.90324026962842     -0.14865442773291
  C          -0.09495081961728      0.25595612698234     -2.00170560417535
  H           0.14508202304993      1.88931660083903     -0.65643315166358
  C          -2.11394669522740      2.00416872500907      0.77386244985243
  C           0.54509272626236     -0.10360968607742      0.69182430476049
  C          -0.19728746054925     -1.29046354642334      0.71241016085892
  C          -1.58135529807649     -1.21745377537185      1.03100167410850
  O          -2.27273490610611     -0.24715440955460     -0.08285970034956
  C           2.03762536702653     -0.10758348258821      0.41566024491649
  H           0.30559417649006      0.60781184233244      1.48176710527700
  H           0.13613471281888     -2.13216172518794      0.12891006196804
  H          -1.84511694029128     -0.67229796202501      1.93536721216178
  H          -2.14913573517040     -2.13270030110046      0.91964378330748
  F           1.16967375154269      0.51759477513596     -2.43009995543723
  F          -0.22330937528548     -1.08451346800086     -2.02423262665516
  H          -0.77597252267890      0.65588900898991     -2.77382094076015
  H          -1.72893227724711      1.82774705149688      1.78307918577939
  H          -3.19944112737645      2.01060056482017      0.83000448335591
  H          -1.76060372616373      2.97244690613734      0.43339036461235
  C           2.58491996677331     -1.35746854842974     -0.26296054529574
  H           2.53716252841351      0.00702718849617      1.38336336544973
  H           2.30360387428760      0.76819057984681     -0.17896384678646
  H           2.45208809153139     -2.23056436524630      0.37130371640644
  H           3.64891966352459     -1.22897318698186     -0.44845981894638
  H           2.09860084725210     -1.53999007706667     -1.21539135958323
