26
Coordinates from ORCA-job NEB_product E -39.909391217500
  C           2.55067556748501     -0.65900704597131      1.25714494170101
  C           2.06854231803513      0.61309627265755      1.95833874838897
  C           1.42300541858026     -1.16602385104448      0.34812495608701
  H           3.39701969095562     -0.43944497954515      0.60176630338681
  C           2.83281080905586      1.85786178330782      1.59844780468355
  C           2.94177887696295     -1.72628355697988      2.30383068420373
  C           3.33533600775093     -3.00713192693176      1.62805518933002
  C           2.81886367301648     -4.18230495136684      1.93066559200047
  O           1.14172030777010      0.60376215632862      2.72275560783373
  C           4.05780790344507     -1.22013216463879      3.23624634172901
  H           2.05785868608106     -1.90748079153005      2.92431435544526
  H           4.08455619707423     -2.92102817674694      0.85288820246490
  H           2.05759079120611     -4.28858317698846      2.68580810884600
  H           3.12730313792360     -5.08464745055927      1.43135178163573
  F           1.92498891216661     -1.95041177028703     -0.64054936985771
  F           0.51810496148758     -1.91713093265499      1.00296103994169
  H           0.87678613360889     -0.34258722764896     -0.14245237445455
  H           2.41049775038634      2.71943744777380      2.10850444948097
  H           2.79542559500595      2.01346591838897      0.52186515046011
  H           3.87591227750902      1.74183829053348      1.88556375779272
  C           5.40940369597726     -0.99706249551401      2.56577234922262
  H           4.18312741362212     -1.96219744861010      4.02738937361091
  H           3.72376539090553     -0.29296638437056      3.70842054886891
  H           5.80393176361299     -1.93120176394381      2.17567952561989
  H           6.11854963978587     -0.61030527131797      3.29435286446604
  H           5.34483708058941     -0.28193050233984      1.74905406711218
