26
Coordinates from ORCA-job NEB_reactant E -39.901834698230
  C           1.52685537142352      0.36680297292869     -0.28969906069074
  C           1.71373948591176     -0.10871967867026      0.94680392435335
  C           1.11123148713973     -0.48228936263976     -1.43768461971139
  H           1.66573266508400      1.41145657806472     -0.50649907150481
  C           2.13081092297300      0.78541395419505      2.07282711012860
  C           4.00378943848222     -1.89170218521688      3.70349488531937
  C           3.36572068750881     -2.10671019581333      2.56488997872817
  C           1.87550214378637     -2.01313614852308      2.40819512064197
  O           1.48487387703873     -1.42625069125252      1.17666605378253
  C           5.47868670660133     -1.99469935393515      3.93500447821404
  H           3.43359334670105     -1.62145386764467      4.58566038049657
  H           3.88923036791845     -2.37689466154605      1.66008633879705
  H           1.42114252751759     -1.49423916127535      3.26036117689476
  H           1.44999769537456     -3.02217740267119      2.35396724812362
  F          -0.07575752130489     -0.06394618868836     -1.96559697236281
  F           2.00286385638975     -0.39234498837215     -2.46771514685126
  H           1.00529730219868     -1.54337480830966     -1.17509873595244
  H           3.06958301117725      0.44376574268428      2.50605436724994
  H           1.37321703901475      0.78603802102917      2.85596131672274
  H           2.25512431743162      1.79960881213229      1.70892716901129
  C           6.30138936375856     -2.35621878370660      2.70593180523003
  H           5.64578687149811     -2.74135768793548      4.71801609099473
  H           5.82657841907736     -1.03771283134335      4.33790079812996
  H           6.00425265264640     -3.32668882128946      2.31637884235189
  H           7.35600557890494     -2.40130052020030      2.96675612535275
  H           6.17475238574634     -1.61126874200061      1.92401039655009
