16
Coordinates from ORCA-job P E -21.237735785160
  C          -1.41623034798384      0.60054245264339     -2.21863035157393
  C          -0.34934416185428     -1.64916888069750     -0.61863888915420
  C          -1.26900991955110     -1.82662801989401     -1.78510550936197
  C          -1.74089028781009     -0.82180732346295     -2.50762651740649
  C          -0.82187239227965      0.78888339633992     -0.83429105323220
  C           0.27094535471295     -0.25423742592322     -0.61753404949588
  H          -1.53693566268145     -2.84330331757288     -2.03605545361856
  H          -2.37578573417409     -1.00897650731764     -3.36205578938624
  I          -3.22429301888086      1.83137595204660     -2.41842704930556
  H          -0.91469135800516     -1.80734847003565      0.30611712503737
  H          -0.75549065726890      1.00254128273880     -2.99049411265697
  H           0.43142744501910     -2.41288776302112     -0.65057836223875
  H          -1.59690295766102      0.65024569861266     -0.07717670972303
  H           0.78209498550017     -0.06720347457825      0.32814521753281
  H          -0.42055060260860      1.79879783231570     -0.72809803554143
  H           1.00841931552681     -0.18201543219386     -1.42050045987497
