16
Coordinates from ORCA-job R E -21.133132384310
  C          -1.41782654195397     -0.04828824620790     -2.75529523297749
  C          -0.09208206801661     -2.54085492359849     -1.72213065020129
  C          -1.38843384843491     -2.38180627639692     -1.96748897206032
  C          -2.04586307713877     -1.14038863224016     -2.33817502275697
  C          -0.63086436586049      1.87487816189003      0.04685449643263
  C           0.00778701061821      0.72877523811558      0.15834999027654
  H          -2.05277878467946     -3.23137881021434     -1.87430914889766
  H          -3.12546034688426     -1.14573502352750     -2.27231141904859
  I          -2.42123104121565      1.72099111638757     -3.26872525906539
  H           0.31268224493158     -3.49994515159693     -1.44943606465562
  H          -0.35120627607886      0.02595993098362     -2.86856081899301
  H           0.60920976009342     -1.72597665605586     -1.77239479431687
  H          -1.67846952012590      1.96885789544324      0.28117031665790
  H          -0.48337946893599     -0.17345797741961      0.48553534344854
  H          -0.13843701506998      2.77478343161219     -0.28358980151989
  H           1.05749333875164      0.63680592282548     -0.07173296232252
