16
Coordinates from ORCA-job TS E -21.121620059540
  C          -0.59931266497278      0.70262333026736     -1.30716733753598
  C           0.86780394483155     -1.39592414284058     -0.04694032150055
  C          -0.45901852946215     -1.49617572642180     -0.32074837762701
  C          -1.18749563857432     -0.46163623841701     -0.95003401575326
  C           0.16947657236872      1.35769750284391      0.84596649076688
  C           0.82850186647668      0.31310720088905      1.39551538459833
  H          -1.03458248160890     -2.29484197534001      0.12614731393244
  H          -2.26491065034114     -0.54456879522872     -0.96563832267140
  I          -1.72675497763745      2.31531050744913     -2.06398212279998
  H           1.35784184124584     -2.16534098684559      0.52720833927405
  H           0.44485753149343      0.79648799765999     -1.53527853964232
  H           1.51944759765562     -0.78914251783475     -0.64928566010328
  H          -0.86022572984287      1.55161620029255      1.09065461682602
  H           0.33991305731125     -0.31838003244208      2.11769553138969
  H           0.69967759110654      2.15145630709731      0.34795201632284
  H           1.90478066994997      0.27771136887125      1.38793500452354
