17
Coordinates from ORCA-job NEB E -42.385809173740
  C           0.97478897296784     -0.91192973993393      0.06587916070530
  C          -0.39739373203914     -0.98455092356948      0.41630040653640
  F           1.85390667171590     -0.89482566049977      1.08534885091979
  H           1.34527650904495     -1.56802694823559     -0.72217550002408
  C          -1.35139997017551     -1.45126220441785     -0.66951727979913
  C           1.11261935489686      0.80311517043013     -0.55755809544681
  C           0.65081705280564      1.55686397200080      0.53501036626047
  C          -0.70925914439597      1.37779641263389      0.92839968164713
  O          -0.85463440719882     -0.16887995825314      1.32116193864727
  Br          2.95040284617443      1.02275444752862     -1.06509964286181
  H           0.49970770602937      0.74799416170166     -1.45181666217911
  H           1.36882951169130      1.88631787833444      1.27237503798906
  H          -1.45338276291672      1.47615278034521      0.14053270884485
  H          -1.00497384363102      1.88081115208159      1.84175147690283
  F          -2.54397247670145     -1.78825157197919     -0.19151955473240
  F          -1.57545915643953     -0.48499874316487     -1.60229189653729
  F          -0.86587313182813     -2.49908022500251     -1.34678099687247
