17
Coordinates from ORCA-job NEB_reactant E -42.418349184040
  C           1.58763986053732      0.30441166576406     -0.13510078451228
  C           1.68415190321713      0.63052789048101     -1.42312083373453
  F           2.01860725719546      1.08220214450925      0.87095298123608
  H           1.15252864447801     -0.61808702383581      0.21224573718646
  C           1.15523727021252     -0.33521794021575     -2.46655441495482
  C           2.96321676883366      5.09269962999668     -2.04009018041308
  C           3.24903684618578      3.81036449526648     -2.17608142637506
  C           2.74800706167570      2.75908678792713     -1.23847192658154
  O           2.18771908938778      1.71918803869902     -2.03607957160366
  Br          3.63360684900981      6.41057622989205     -3.20606423031384
  H           2.35028028112013      5.49481829959275     -1.24853532066452
  H           3.86049358291746      3.45127646242388     -2.99066330737671
  H           1.99402380023510      3.16472589615775     -0.55508633253089
  H           3.58482211851651      2.35965801112730     -0.64937108631934
  F           0.16734254104932      0.20748932718437     -3.18436475355929
  F           2.10924687611270     -0.70058384525484     -3.32729543190149
  F           0.66873924931560     -1.45943606971533     -1.92761911758150
