17
Coordinates from ORCA-job NEB_product E -42.412663360580
  C           2.10658351979703      1.32784390385994     -1.36283804070648
  C           0.81981120999640      1.01734761368864     -2.13914198560606
  F           1.86877853572314      1.03472394979138     -0.04051791396022
  H           2.94215434449233      0.69477586594827     -1.68561256658372
  C           0.93158759370769     -0.23163967253671     -3.06116276380655
  C           2.43317480173080      2.81467921960426     -1.49340241962798
  C           3.70095285361492      3.19056968832723     -0.81389097855338
  C           3.77656809318294      4.15268603140849      0.08742686075144
  O          -0.19966177052425      1.62055999870389     -2.02233505067453
  Br          2.56466254141616      3.15690001158721     -3.44119158678700
  H           1.58587929150989      3.40713147114745     -1.14017579861689
  H           4.57373328259931      2.62623240313658     -1.11257144724157
  H           2.91364963060336      4.72506478991500      0.38503536721455
  H           4.70713574326894      4.39950347065506      0.56679143767075
  F          -0.12041943126117     -0.36748964536073     -3.85541823402558
  F           2.02872842815640     -0.18272507452743     -3.82710845218821
  F           1.03278133198609     -1.33716402534854     -2.30938642725858
