23
Coordinates from ORCA-job NEB E -36.689242151020
  C           0.53771530410499      1.00980768765660      0.25439626562541
  C          -0.68700172436306      0.38305114804677      0.54531003971373
  C           0.49563588012702      2.32551878177758     -0.49562404327088
  H           1.25178425337105      1.04549547018242      1.07295172353421
  C          -0.87773309875186     -0.38154403523531      1.83121359458982
  C           1.31335468292749     -0.17182303715745     -1.03544508339413
  C           0.30522913220283     -0.98120015565290     -1.57683261627722
  C          -0.94597355132370     -0.32519458798872     -1.82666647078524
  O          -1.51943241743884      0.11694531112122     -0.42735226385846
  F           2.30349138768633     -0.82788726272939     -0.38093426601045
  H           1.75960846654466      0.61499250979702     -1.63701194159782
  H           0.25129354697960     -1.98853848625719     -1.18414146829987
  H          -1.74256693239015     -0.96234164937050     -2.19711216458674
  H          -0.88288373668970      0.59724714408971     -2.40295090127963
  F           1.74773189928787      2.72668405500714     -0.88993446679375
  H           0.12345496896337      3.10977564453456      0.17496729295710
  H          -0.12613003521937      2.28983778534603     -1.39403330034946
  C          -0.34242271142378     -1.81324222387199      1.73523064581930
  H          -1.94700839720136     -0.41698879453019      2.04727729062703
  H          -0.37383789390245      0.14798344477295      2.64005824669119
  H          -0.87043335576364     -2.35992311891848      0.95795096480460
  H          -0.49422313908692     -2.32682385097903      2.68093430855654
  H           0.72034747135961     -1.81183177964084      1.50774861358473
