23
Coordinates from ORCA-job NEB_reactant E -36.725034980260
  C           1.66672192603910     -0.31685822475714     -0.02445537963373
  C           1.35208791998437     -1.60918239133065     -0.15795963472509
  C           2.07220171108449      0.68710650287586     -1.05694839658047
  H           1.65404683881864      0.06583590213730      0.98453849263764
  C           0.95722755747386     -2.43024435872665      1.04548713379426
  C           3.59351321361119     -3.63470680848402     -3.48911473579591
  C           2.35781889119852     -3.31752331404298     -3.15739510151329
  C           2.00748379569772     -2.04499594325126     -2.45119067302108
  O           1.32223405165239     -2.39743489589291     -1.25786175217237
  F           3.88244996281829     -4.77789449024991     -4.12780086527971
  H           4.47486913700730     -3.03363590787757     -3.31583111505695
  H           1.54290233149107     -3.99403540556923     -3.36569637254518
  H           1.34483089379195     -1.44818523233399     -3.09372543517413
  H           2.91548980630634     -1.47998663655307     -2.22888738524698
  F           3.42727743307448      0.59914363706613     -1.36466609785746
  H           1.92476819111379      1.70176406568332     -0.67623930922565
  H           1.54143282931199      0.57421921122693     -2.00603891675276
  C           2.16126711430406     -3.21207423533096      1.57145439685453
  H           0.18024794094825     -3.13119813505795      0.73799288805683
  H           0.56105998265732     -1.78305583376368      1.82683556444396
  H           2.55354277469647     -3.86341418107374      0.79448882484215
  H           1.87163609077835     -3.82235556003679      2.42310758088491
  H           2.94868960614007     -2.52968776465704      1.88270628906649
