26
Coordinates from ORCA-job P E -38.142512178360
  C          -1.05195255411571      0.46737020938295     -2.33213417984792
  C          -0.64919758594547     -1.75064350677607     -0.34938169879008
  C          -1.05401368239887     -1.96997582387165     -1.77579486685881
  C          -1.22276673290805     -0.99406664614900     -2.65059059922034
  C          -1.01599723672645      0.70172870155841     -0.81355941966669
  C          -0.13484247842414     -0.33732389529329     -0.12141609496577
  H          -1.19768832314337     -3.00057130640795     -2.06607459450775
  H          -1.48932494021847     -1.22021005109716     -3.67293898489374
  N          -2.06506983889607      1.33633640066167     -2.92506365489205
  H          -1.50745072955577     -1.92777500640960      0.30576753501987
  H          -0.08887507820195      0.79321874894045     -2.74982448273736
  H           0.12229021786319     -2.47620719941619     -0.07995649442836
  H          -2.02270431625968      0.62747192108962     -0.40389018520483
  H          -0.06862586126717     -0.10580851335150      0.94786396564417
  H          -0.64139531306669      1.70604233859804     -0.61418960801866
  N           1.25116453831428     -0.18371112020577     -0.64331019121529
  C          -1.75630259183974      1.75700655281481     -4.27368360430698
  C          -3.41910718234835      0.83008428402336     -2.83194472331914
  H          -0.77439930502308      2.22746779776074     -4.29090448605040
  H          -2.49628370767191      2.49394237687674     -4.58416708614508
  H          -1.76597198617739      0.93230395850720     -5.00298061106398
  H          -3.60567062688908      0.44132344917524     -1.83382364591674
  H          -3.63650184057508      0.03406134285096     -3.55882559078340
  H          -4.10814844458106      1.65531960139787     -3.01369875210277
  O           1.77982799028667     -1.12733744797914     -1.17442051623013
  O           1.76088760976942      0.90063283331926     -0.48600742949775
