26
Coordinates from ORCA-job R E -38.065599464110
  C          -1.38395889661769     -0.18774775828365     -2.79895620150918
  C          -0.01367142483001     -2.47630715563407     -1.39688295606824
  C          -1.31503434265806     -2.19166663314326     -1.34775672921597
  C          -1.97989542862663     -1.04899036772373     -1.92556992671174
  C          -1.33553735983753      0.55206391068488     -0.09006969207588
  C          -0.06612757605103      0.22350918524521      0.18940909861407
  H          -1.96382449766700     -2.85349746168641     -0.78694001685921
  H          -3.04171878149605     -0.97969552515296     -1.74071081205238
  N          -1.95301189876883      0.83988624139948     -3.44563130318674
  H           0.38330221646375     -3.34844374432690     -0.90788180382256
  H          -0.32875914102740     -0.29559047631655     -2.99956354519904
  H           0.70226655062914     -1.87368604509395     -1.92759509284381
  H          -2.15018610154921      0.15414610270469      0.48538459984559
  H           0.23653933205606     -0.50692556446939      0.92117516237558
  H          -1.54120948978182      1.36446872853539     -0.76434200603266
  N           0.99821358775752      0.77058951127120     -0.54622263112509
  C          -1.12882801015123      1.79543444625064     -4.14544765820271
  C          -3.36773370428813      1.09997573297133     -3.38285684703568
  H          -0.13994304114152      1.82932273828494     -3.69005501595050
  H          -1.57172466639355      2.78779357612261     -4.06750306319379
  H          -1.03290583372863      1.53686702849491     -5.20465982859342
  H          -3.63841699940017      1.66555861322228     -2.48437598005151
  H          -3.92174207178102      0.16159332426390     -3.38226973272777
  H          -3.66696366522842      1.67470114002374     -4.25800410958819
  O           2.13458354412891      0.47005474392406     -0.21554439937301
  O           0.74080769998856      1.51007570843162     -1.49127950941618
