20
Coordinates from ORCA-job NEB_reactant E -40.700263922940
  C           2.16306461582625     -0.66167792734824      0.19857180184531
  C           1.33329816933347     -1.68175842890225      0.49728907284415
  N           2.48986781351848     -0.20258657080191     -1.09340832577179
  H           2.65555340193470     -0.14214427108137      1.00537162427205
  F           1.07429145471054     -1.85777964719360      1.80039855708871
  C           3.40818551495658     -3.68066066979371     -0.82115668034274
  C           2.62081623197521     -3.08191032355112     -1.71252640059681
  C           1.13732706494660     -2.96283507711480     -1.52487208137512
  O           0.75124688369384     -2.62990790779445     -0.18199044253886
  O           4.74232453547489     -3.80953693268564     -0.84192716288700
  H           3.00478950737802     -4.13703297035384      0.07519516049923
  H           3.01308809128148     -2.62855745916276     -2.60755320994290
  H           0.62190936875467     -3.91259462313123     -1.69678221943883
  H           0.74315698010761     -2.20614376097869     -2.21183643904761
  O           3.59337044433044      0.28161869130206     -1.24557707022960
  O           1.64885504656638     -0.28739844692281     -1.97144373183409
  C           5.44628563253659     -3.21627213709339     -1.91412921738186
  H           6.49975870407830     -3.40513530942424     -1.71942938362094
  H           5.26812211258929     -2.13772698025835     -1.95226466993694
  H           5.16278842600664     -3.66695924770967     -2.86922918160437
