20
Coordinates from ORCA-job NEB_product E -40.697345144510
  C           2.85680030543720     -1.53714825146501      0.07369328238446
  C           1.39646150541681     -1.31065267822023      0.34624333381154
  N           3.41729374382016     -0.41724236264293     -0.71782196401391
  H           3.41958882419324     -1.59122773001304      1.01345662471761
  F           0.97402920290106     -2.22216545091488      1.26546236942441
  C           3.02285011803924     -2.93739977440406     -0.65562827526832
  C           2.18384415387926     -2.98448073793839     -1.90275669645669
  C           1.24962669543335     -3.89740944045469     -2.09160694952846
  O           0.64738101490349     -0.52420796906855     -0.09767091607828
  O           4.37725109778372     -3.25360227498160     -0.80608205189379
  H           2.64908378651063     -3.67663141528381      0.06607202350113
  H           2.36922807774054     -2.21657693309169     -2.63980760909242
  H           1.04447527483747     -4.66546866402291     -1.36357040827232
  H           0.65267833537762     -3.91121646418524     -2.98654934265753
  O           4.37566643520739      0.14011018385374     -0.24405690930189
  O           2.88715578771294     -0.14880179288447     -1.76498512728632
  C           5.02158349563438     -2.89323823654947     -2.01368460608668
  H           6.05002475927061     -3.22628167839458     -1.89216980730417
  H           5.01876119447201     -1.81520356399532     -2.19003687470040
  H           4.57281619142887     -3.40305476534288     -2.87040009589797
