22
Coordinates from ORCA-job NEB E -47.678584514970
  C           0.38193696850664      0.38044144098012      0.79985416787162
  C          -0.91142463975327     -0.20421029906043      1.32226150761767
  N           0.28969671156999      1.80657789644721      0.74290491299076
  H           1.18968986323229      0.13794823038196      1.50021556698245
  C          -1.24756089261548     -0.11088096799393      2.61473330474144
  C           0.71482474239687     -0.30038545000970     -0.57961223099580
  C          -0.42553328126589     -0.36274447780649     -1.44928608671845
  C          -1.74849496414745     -0.62646734020981     -0.87429290049110
  O          -1.77651477910181     -0.86380035349886      0.50896839607686
  C           1.95384489286784      0.28723828039587     -1.25815120064414
  H           0.98592200517115     -1.37510559403764     -0.33416614986934
  H          -0.35622088919326     -0.15309112098575     -2.50277035987747
  H          -2.19961757614548     -1.51940221880983     -1.32911547640865
  H          -2.42680876794398      0.21411134992353     -1.11637726566567
  H          -0.36873689289210      2.15316637152841      0.05721817679895
  H           1.18534638084329      2.25924109177097      0.62337596859348
  Br         -2.88750476176277     -0.80500851269225      3.23501559499947
  Br          0.83581277989298     -3.22615892516932     -1.65619982014003
  Br         -0.14222953378329      0.67106770326743      3.91322997676194
  F           1.67723572278530      1.50320585336269     -1.79923397598381
  F           2.93980067885773      0.49542716443442     -0.35995946668744
  H           2.33653623248071     -0.36117012221858     -2.05861263995271
