22
Coordinates from ORCA-job NEB_product E -47.700055556440
  C           2.78482530302730     -0.91401192170673     -1.20364395458506
  C           1.55454120656982     -1.35084563268020     -0.41929467275398
  N           2.87928103775638      0.52148090181552     -1.23936960258006
  H           3.70335119055754     -1.31406726871771     -0.76064793900480
  C           1.76468989847346     -2.40216646639668      0.66373452968065
  C           2.64405575815968     -1.50483477074714     -2.63896215822171
  C           1.47960633422852     -0.91091930159427     -3.37496306804054
  C           0.35575305617350     -1.56193875883639     -3.60771693507979
  O           0.47011933410365     -0.86110222908047     -0.56197722585333
  C           3.94078384360974     -1.28488576138833     -3.42707753598196
  H           2.51903792497137     -2.58983068330169     -2.55234658623996
  H           1.61541802693385      0.10977623002002     -3.70174409988331
  H           0.20678325106830     -2.58122903603721     -3.28935791131132
  H          -0.46660068457854     -1.10004779354436     -4.12435450609368
  H           2.00114036085281      0.94335053820124     -1.51795849006082
  H           3.17128306688323      0.90531475749701     -0.34971861764945
  Br          0.05999039048395     -2.94677872435134      1.40743817962390
  Br          2.71613967138939     -3.95818771103350     -0.00111648062908
  Br          2.83644733240846     -1.52957754217436      2.05218248386710
  F           4.21236403919966      0.01778619774214     -3.63151082986659
  F           4.99843084257542     -1.80027182186709     -2.75411810356838
  H           3.89945881515253     -1.77801320181844     -4.41197647576783
