22
Coordinates from ORCA-job NEB_reactant E -47.705436415930
  C           1.31553484789668      0.02185207322972      0.46605092636119
  C           1.61519484908753     -1.05088290438408     -0.29314569235406
  N           0.51785983962170      1.03994251193077      0.04221483014032
  H           1.75019385662969      0.14005881109367      1.44690893973826
  C           2.53184109397406     -2.12595828852111      0.14320760849410
  C           2.71052312948687     -2.42842721089885     -3.70400605091288
  C           2.81846508595656     -1.18714813337295     -3.25915772144994
  C           1.67427011097227     -0.46048170561685     -2.60702111539685
  O           1.06495580525308     -1.21312808527890     -1.55122849475699
  C           3.84303617065239     -3.19459499083103     -4.31284482690421
  H           1.78480939397765     -2.98219617668579     -3.64543507949583
  H           3.75736387836536     -0.65704227224704     -3.33223651242160
  H           0.87138273645044     -0.30928160574748     -3.33605741410075
  H           2.00644011626633      0.51173833491843     -2.22957983763692
  H          -0.06094066496250      0.84674542673486     -0.76138449403846
  H           0.10863329897145      1.63277774467293      0.74352268402609
  Br          2.03870138376165     -3.81473646730042     -0.67007672801312
  Br          4.44861838707918     -1.74620303879337     -0.40165136931133
  Br          2.56816061829017     -2.38445988018395      2.06597369269833
  F           3.46027851502361     -3.75155940975675     -5.49191517440859
  F           4.90644711174890     -2.40566612497217     -4.59410211110561
  H           4.19533043549694     -4.01604860798962     -3.66423605915112
