17
Coordinates from ORCA-job NEB E -42.115423550020
  C           0.78302716412932      0.70996705000222      0.72472562091247
  C          -0.54117635623415      0.23204934367507      0.90253796018217
  Cl          0.87895897538686      2.46827940188844      0.56477224531346
  H           1.52710071621706      0.37482595500838      1.44023457693450
  C          -0.77592592205010     -1.03298341302994      1.68865372106722
  C           1.30387399067421      0.11451976203947     -0.89944989649921
  C           0.15142930329150     -0.20001419638850     -1.66278189437652
  C          -0.94536909200904      0.71699075707736     -1.47892504526138
  O          -1.42228918861650      0.47106521637470     -0.03166137858135
  Cl          2.44449073350341     -1.19686354728878     -0.66004953807087
  H           1.85057169474307      1.00696708796382     -1.19453840626712
  H          -0.09768193022338     -1.24311676917983     -1.79846843789031
  H          -1.84014945886214      0.50369813182077     -2.05516854204121
  H          -0.67740304580640      1.77257749361432     -1.52449236182328
  Cl         -0.30905463267110     -2.48261867186584      0.72119291251462
  Cl          0.16574127598624     -1.04134810585699      3.18258046071471
  Cl         -2.49614422745887     -1.17399549585466      2.08083800317209
