17
Coordinates from ORCA-job NEB_product E -42.159205154150
  C           2.66286373609491     -1.48356937239404     -1.27741483504517
  C           1.44348252887434     -2.33502929056270     -0.97821997989793
  Cl          2.12733514311979      0.18854419760548     -0.91587392430333
  H           3.48285877605845     -1.71570514619734     -0.59559239695019
  C           1.52292327880107     -3.08122888164362      0.36696300533514
  C           3.13507423219401     -1.56144877430659     -2.72847544615128
  C           2.15424606851266     -1.06783441142123     -3.73725149505486
  C           2.45382062047167     -0.13968576745813     -4.62729690249497
  O           0.48215288682279     -2.43024724428333     -1.67626636342830
  Cl          3.48524788238858     -3.30454586206382     -3.04263563052364
  H           4.08782447383659     -1.03376654942321     -2.82553376320680
  H           1.17899735966548     -1.52910703764633     -3.70840431418484
  H           1.73262649733756      0.19722891137677     -5.35060866789800
  H           3.42650812866888      0.32340530044316     -4.66577128222468
  Cl          2.84433113791922     -4.26716198990080      0.22667651513314
  Cl          1.88403084421437     -1.94066969066557      1.67741325149282
  Cl          0.00757640501963     -3.91587839145871      0.70259222940291
