23
Coordinates from ORCA-job NEB_product E -40.975570013060
  C           2.71319281667388     -1.09295189351874     -0.23861336198452
  C           1.28635571361686     -1.63546827661314     -0.05965786948435
  C           2.63501884732982      0.39284603301189     -0.56747497514120
  H           3.26445676302819     -1.14481111483824      0.70541150164822
  C           0.99230090113708     -2.21832180445954      1.29897903027726
  C           3.48215404432028     -1.88096570243180     -1.32275364474624
  C           2.69702893708854     -2.10358991107746     -2.57969915141776
  C           2.37780433200103     -3.30170788907738     -3.03021431966543
  O           0.48897196138842     -1.60124893284430     -0.95489885439279
  H           4.39734546924190     -1.32841461167033     -1.55652816258694
  H           3.76568291438025     -2.84621168875531     -0.89863940178466
  H           2.40164556630727     -1.21835560192454     -3.12184889288745
  H           2.65713837388399     -4.20172842524011     -2.50543246128382
  H           1.82447444928181     -3.43498757927811     -3.94256186787354
  F           3.86382717829381      0.93371292722768     -0.67375463367589
  F           1.99159690308529      0.69860551607796     -1.68950738849458
  F           2.02319114926259      1.06616224118924      0.42624359404034
  C           1.78057065654091     -3.51058806503949      1.52288144771241
  H          -0.07665516542577     -2.42713349046244      1.35526059815421
  H           1.25138004808319     -1.48529713655402      2.06581902442065
  H           1.55360159235967     -4.22800032707552      0.73815272466171
  H           1.50328613362836     -3.94698959393808      2.47871915982366
  H           2.85223041449262     -3.32805467270822      1.52961790468070
