19
Coordinates from ORCA-job NEB E -44.505741750170
  C           0.68282637422001      0.85446218489518     -0.81826546791234
  C          -0.61606970810537      0.94179306648890     -0.06591184199806
  N           0.16250850751645      1.48157070622287     -1.82597057310161
  H           1.69373248496569      0.55217259738648     -0.66027256146563
  C          -0.59733353530003      1.93326107410826      1.12946955198848
  C           1.16592977721360     -2.46251167822749     -0.48265726333757
  C           0.63610951991314     -1.62924111617209      0.39510826622186
  C          -0.83727466229509     -1.43841484878962      0.55629030712797
  O          -1.38416806138530     -0.14461821083030      0.22766126761717
  H           2.22900950295727     -2.61820425681985     -0.54619824964241
  H           0.55711175232179     -3.02617252751652     -1.16976304826686
  H           1.25707853056421     -1.08293069187903      1.09173525383554
  H          -1.10951253654169     -1.61945244369415      1.60392435688345
  H          -1.38347670071071     -2.13974801114893     -0.08141583164996
  O           0.44666413666026      1.88535512660977     -2.90439477403133
  O          -1.14862992384644      1.61924680341000     -1.22704253753979
  Cl          0.29579348810462      1.18226848085365      2.45930980437442
  Cl          0.20448381734076      3.44910962907982      0.67996785534538
  Cl         -2.25478276359315      2.26205411602303      1.63842548555128
