19
Coordinates from ORCA-job NEB_reactant E -44.518103853160
  C           2.19039494497355     -0.39221779787594      0.29222030494525
  C           1.48284708073718     -0.61663118484814      1.41997494191707
  N           2.22468626672412     -1.18758415755736     -0.88014590505144
  H           2.81581015334157      0.48414880867611      0.22174281144767
  C           1.50699728661156      0.45345252812898      2.50504126148021
  C           3.10829792226719     -3.97097320777704      0.31881673033576
  C           2.51058180399846     -3.33274193446413      1.30681919347100
  C           1.05269522851514     -2.98130963972133      1.31283116816248
  O           0.81612485025508     -1.67384878716579      1.84359597619431
  H           4.15203153552551     -4.22744389330611      0.36092885719770
  H           2.57507268404340     -4.26431888530373     -0.57033153396101
  H           3.05291117998388     -3.02958968509511      2.19322333706210
  H           0.50285168914165     -3.63076329824332      2.00144365594469
  H           0.62651715750112     -3.07215284484695      0.30637765682952
  O           3.23458028712134     -1.13004833170894     -1.54865735981192
  O           1.23420987931229     -1.83003044761060     -1.17842148556376
  Cl          2.94784951855637      0.13795569174313      3.51813240206388
  Cl          1.61706515628779      2.08995717707248      1.84914365658946
  Cl          0.06057537510279      0.34513988990379      3.51886433074703
