19
Coordinates from ORCA-job NEB_product E -44.525168733020
  C           2.63173803086211     -1.14619862724151      0.41515157993154
  C           1.32761997564999     -0.62423315611758      0.99532465596264
  N           2.78550882230020     -0.51483281903976     -0.94373782863431
  H           3.49348310274541     -0.84130059713066      1.01223220967525
  C           1.49715994156564      0.29153611568654      2.22028312779895
  C           2.52867450450740     -2.67105315613500      0.25176191553508
  C           2.39438769452375     -3.33637156164957      1.58848848070946
  C           1.29351553073008     -3.93602515565491      1.99805760752238
  O           0.25583674388713     -0.86872915371606      0.53673035876953
  H           3.42913366747934     -3.03008272532583     -0.25273389645303
  H           1.65933911818645     -2.88863237192017     -0.37124411902712
  H           3.26994314742068     -3.29158239497528      2.22154331320923
  H           1.22928781529655     -4.40491619516520      2.96429157603360
  H           0.41243830675230     -3.98564090428889      1.38008640199693
  O           3.61806556687657      0.34745108959455     -1.02788649309965
  O           2.07332676559883     -0.91484092423002     -1.81924361045294
  Cl          2.43164516978645     -0.54652624227187      3.47400050707712
  Cl          2.39042332966947      1.73567985828129      1.66287721861740
  Cl         -0.07342723383834      0.76169892129995      2.86811699482792
