20
Coordinates from ORCA-job P E -28.458632274020
  C          -1.32718233494845      0.64960990152617     -2.10503513162382
  C          -0.87335745997590     -1.88012087575051     -0.64695313241404
  C          -1.49346787291312     -1.80763443624237     -2.00682681480457
  C          -1.69530964489004     -0.67655233790618     -2.66402082804252
  C          -1.10502448801613      0.60464519063861     -0.60489211594917
  C          -0.17258181582138     -0.56529615831796     -0.27676003589653
  H          -1.76364058707492     -2.75234682535085     -2.45750701106589
  H          -2.11157989580131     -0.68618350936941     -3.66119569845107
  I          -2.88475469000677      2.11604377300909     -2.56582586120791
  H          -1.64353228397628     -2.09698603194173      0.09987542030343
  H          -0.44211721305229      1.03849544732572     -2.61071865327155
  H          -0.16010275869395     -2.70714685119593     -0.61828598386570
  H          -2.05035734800731      0.45014915677319     -0.08203189205087
  H           0.05022203758325     -0.56415581509511      0.80430218171946
  H          -0.66199020248602      1.54008226995601     -0.26009052064002
  O           1.02820935876402     -0.35522271551674     -0.99626755705520
  C           2.13362830386523     -1.08860635505949     -0.53864929027495
  H           2.99159162271694     -0.72699546299446     -1.10230928831768
  H           2.02111200008761     -2.16444716729895     -0.71381459977899
  H           2.30444527264683     -0.92139119718909      0.53235681268759
