20
Coordinates from ORCA-job R E -28.367832838830
  C          -1.62456040091084      0.01621632513602     -2.58656533796082
  C          -0.33859717714788     -2.69122556606545     -2.37004118877117
  C          -1.59119996304502     -2.38641537776133     -2.04691962302341
  C          -2.25109788129053     -1.11447881671085     -2.28552315746292
  C          -0.28660280071375      1.88834362567784     -0.07417058118661
  C           0.09471418549924      0.64997793523943      0.18862532396717
  H          -2.21605660931522     -3.13693497313663     -1.57898466368162
  H          -3.32864105420607     -1.12265055439870     -2.18982296848055
  I          -2.64461338951951      1.81612736249805     -2.93137741970542
  H           0.07259877760153     -3.66433281922277     -2.16270934910338
  H          -0.55685338598719      0.11486176557415     -2.66453683722890
  H           0.31605447471675     -1.99164110398485     -2.86010313111453
  H          -1.11772142510334      2.33004226033176      0.44049093371648
  H          -0.40302459377465      0.03941623331888      0.93580053223125
  H           0.21891880426812      2.48380865386850     -0.81255749793769
  O           1.12313057513291      0.04835623506536     -0.47249249546653
  C           1.55662189671892     -1.17675354651734      0.06496535396139
  H           1.97001152591014     -1.04570463743786      1.07078921897322
  H           2.33790321574981     -1.54569621761114     -0.59722249900716
  H           0.73932522541658     -1.90569678386307      0.10300538728120
