20
Coordinates from ORCA-job TS E -28.351395002020
  C          -1.14453027839567      1.07245484986432     -1.45808467397734
  C          -0.05641110613027     -1.40899705548723     -0.59264582922858
  C          -1.38208568538152     -1.23444930852473     -0.81524041335840
  C          -1.93044778997425     -0.03282230591055     -1.30384173544578
  C          -0.45861651388952      1.39694717878178      0.56222827173181
  C           0.34660532770252      0.37292082864663      0.96924671131593
  H          -2.07894334595749     -1.98785860731718     -0.47280547201955
  H          -3.00601843604639      0.06462309986990     -1.31792271824813
  I          -2.02862560677539      2.89791692042443     -2.06938518926479
  H           0.28898170546252     -2.31834586193788     -0.12703700135606
  H          -0.11658317082821      1.01855235743655     -1.76730584636177
  H           0.69118443706897     -0.83407679879450     -1.10751913999807
  H          -1.45124377427546      1.46716726204594      0.96679552691192
  H           0.00690074526406     -0.40217093165059      1.64183678989909
  H           0.01204791961018      2.31272521687996      0.25012391038556
  O           1.69136993120048      0.47419145422798      0.76912467740431
  C           2.48685210044377     -0.52495391450580      1.35639175059920
  H           3.52125859328326     -0.24372310467932      1.16769137612466
  H           2.29057504505735     -1.50561589273730      0.91179549053930
  H           2.31772990256106     -0.58448538663242      2.43655351434669
