15
Coordinates from ORCA-job NEB E -26.133758298870
  C           1.14329546317984      0.46927985538135     -0.72481963175553
  C           0.66234644609191      1.21452961901806      0.35702193009082
  O           0.62919584204237      0.66905114023839     -1.96415171591115
  H           2.20194473053607      0.24376529439286     -0.78507838976987
  I           1.90018591251956      1.17896908394763      2.13382794118881
  C           0.31307991738386     -1.25885096960319     -0.17019471960860
  C          -1.02135596391313     -0.90522891337339     -0.07524403628519
  C          -1.40178251875770      0.02280576861898      0.93404071410161
  O          -0.58939324414048      1.39902146670679      0.51696096200000
  H           0.62611355079691     -1.88491306659387     -0.99279316899504
  H           0.88371161954784     -1.40321300223447      0.73698440045388
  H          -1.64720217031667     -0.98253639377922     -0.95407355384091
  H          -0.99991875453698     -0.14420537049545      1.93042633703831
  H          -2.43062174899824      0.35923181855877      0.94555341212566
  H          -0.26959908143516      1.02229366921676     -1.88846048083280
