15
Coordinates from ORCA-job NEB_product E -26.174522702700
  C           1.66036922864038     -1.88010591337424      0.42192395499197
  C           0.94474762546018     -0.64042029586207      0.89133847458082
  O           1.58842580616162     -1.98148611437339     -0.96718132735299
  H           2.72530218376375     -1.81433710437754      0.66906220014717
  I           1.47690382594571     -0.06429013911274      2.90911928236265
  C           1.04412956623946     -3.10375112059572      1.15102624179069
  C          -0.44672696534439     -3.13838866665742      1.00787724225709
  C          -1.28720005524967     -2.96883454945345      2.01077630945067
  O           0.13779709382558     -0.02082432781994      0.29249947216841
  H           1.48629404116897     -3.99198368957388      0.69420008228261
  H           1.32391716757504     -3.07450958436384      2.20436586103808
  H          -0.81838198133978     -3.30773535434608      0.00511447521423
  H          -0.94302951983203     -2.80524222866476      3.01919757389944
  H          -2.35363614357957     -2.99249618915538      1.86908237420280
  H           0.67788812656476     -1.83199472226956     -1.25340221703365
