23
Coordinates from ORCA-job NEB E -42.984707762930
  C           0.87025732084103      0.25575407589736      0.24926702322274
  C          -0.59378151506585      0.43338711632693      0.18610385296568
  C           1.64726986738252      1.50532468226689     -0.24015926737291
  H           1.15642602664092      0.14277478206978      1.30161819187756
  C          -1.40487399484907      0.60342203971637      1.42606731394172
  C           1.19833528622967     -1.02899877496569     -0.52892059852218
  C           0.39875133120855     -1.20176994324955     -1.67777249146560
  C          -0.74974120349549     -0.33557800256656     -2.02077775373206
  O          -1.29963425682869      0.35850140635678     -0.93256821354844
  Cl          3.15965047898774     -1.07232918305981     -1.06940911168602
  H           1.31446775969636     -1.86912940517542      0.14903382630750
  H           0.71112375857843     -1.89143102149007     -2.44163240922260
  H          -1.57953151824488     -0.95480660162355     -2.38607019693622
  H          -0.51872204999529      0.36797077569024     -2.83141953629175
  Br          0.65893662266781      3.11105145260697      0.32597279315806
  Br          3.39684060961019      1.64190720745639      0.61908217678478
  Br          1.88549727064065      1.67190383066309     -2.15534257779873
  C          -1.70110110215297     -0.76398853777772      2.06034560718292
  H          -2.34388449483471      1.08886615252735      1.15899670796609
  H          -0.87868219759792      1.22882796041198      2.14870372235086
  H          -2.27336423693187     -1.38479716266598      1.37627077645417
  H          -2.27625489085752     -0.62547067915811      2.97123893446238
  H          -0.77798487162961     -1.28139217025765      2.31137122990203
