23
Coordinates from ORCA-job NEB_reactant E -43.031057724160
  C           1.80513055524679     -0.21462420306188      0.09170434408763
  C           1.43718364585524     -1.50044037928958      0.10694082871152
  C           1.93983272290580      0.66939449845915     -1.07855570712141
  H           2.04608446591116      0.25814657287772      1.03350603476052
  C           1.25327680044200     -2.24329603229918      1.39988841710509
  C           2.63399160673691     -5.08226378507734     -1.09012654223067
  C           2.91989228090835     -3.79175656683874     -1.03577019997707
  C           2.13325535587209     -2.76396301315680     -1.79550618610913
  O           1.08181904774209     -2.20307560788914     -1.01128021868381
  Cl          3.49452685850559     -6.26766247188226     -0.19805035092303
  H           1.84396428215652     -5.48524108566994     -1.70582316667474
  H           3.71613879330983     -3.42574694778121     -0.40294994239494
  H           1.61432430032399     -3.21226670408153     -2.64450582564073
  H           2.81060267400965     -1.98185245034088     -2.15815395329699
  Br          1.54181118112742      2.52135725696248     -0.56212838359925
  Br          3.83433334668510      0.66343821200734     -1.74494718695194
  Br          0.78711400399970      0.23837197737781     -2.58116687225618
  C          -0.23713342902210     -2.48341065423684      1.64914320258790
  H           1.68877948188208     -1.68062269243734      2.22536977701771
  H           1.75826628476463     -3.20862758130377      1.32056468546652
  H          -0.75663481363951     -1.53755038061087      1.78241761176445
  H          -0.37378715871540     -3.08654064973387      2.54245445208361
  H          -0.67597228700794     -3.00366731199332      0.80177518227493
