23
Coordinates from ORCA-job NEB_product E -43.048481332610
  C           2.02373906210466     -1.74367033660393     -0.25979116302937
  C           0.65586549180407     -2.03710186099811      0.40815362404090
  C           1.90949236280671     -0.42221049723643     -0.99683875221150
  H           2.80676293034188     -1.65211519392705      0.50085379415735
  C           0.69631128579174     -2.17476412755477      1.90092735214313
  C           2.33417270525384     -2.92852645769114     -1.18627752477288
  C           3.60564835338459     -2.82045121934974     -1.95409223129833
  C           3.66152962510910     -2.92142826198630     -3.27042105780484
  O          -0.32666401676130     -2.14910886831917     -0.27113061003666
  Cl          2.44825823689514     -4.39058198488352     -0.12927865138759
  H           1.48299773251159     -3.10957749735789     -1.84975650778519
  H           4.50047522998633     -2.69131797892866     -1.36093858601058
  H           2.77636255928251     -3.06114051930817     -3.86936126991096
  H           4.59562977643138     -2.85182873146051     -3.79881724175405
  Br          1.15192737692295      0.92418402516357      0.21413680860840
  Br          3.65491829359629      0.27023415281464     -1.54643664866529
  Br          0.78059990427053     -0.51141505358545     -2.56237104756711
  C          -0.69063596293978     -2.38841640740038      2.49030850649775
  H           1.16334281292042     -1.28248095800540      2.32685914263559
  H           1.34963279408937     -3.02268456327700      2.12778245979833
  H          -1.32737651996023     -1.53530972886613      2.27030884234071
  H          -0.62696828268876     -2.51101432358930      3.56767730628923
  H          -1.14932175115307     -3.27467360764917      2.05990345572295
