20
Coordinates from ORCA-job NEB E -32.419791699150
  C          -0.83025692991377     -0.31724999544425     -0.49707481377580
  C           0.25390444105947      0.38185803826929      0.11271389596010
  I          -2.57290203035575     -0.62489174640713      0.86838014118714
  H          -1.26909097137406      0.22629780280456     -1.32941570657050
  C           0.70435777432612      1.72466732018514     -0.36273553848684
  C          -0.29614672018870     -1.74386494959093     -0.96057889943094
  C           0.30953611412229     -2.41695624030180      0.17877362184146
  C           0.96055482862702     -1.59893980335371      1.22381454985349
  O           1.01213874080987     -0.19653626789891      1.04565037739286
  Cl         -1.62531560626919     -2.71597548663554     -1.68375436899784
  H           0.37081687974099     -1.53619096234707     -1.80367153240083
  H          -0.18666390678581     -3.30235708984278      0.54366062719124
  H           2.01979456619021     -1.86553747955221      1.33909219133095
  H           0.48304440552698     -1.79508626324407      2.19374534213511
  C          -0.27322152874004      2.82961621452184      0.05308775975042
  H           0.79011643022776      1.71701601988012     -1.45432265128853
  H           1.68773595572537      1.92425537842782      0.06436582457258
  H          -1.26132169535365      2.64706535077006     -0.36174754453993
  H           0.08007888437195      3.79253647580385     -0.30577634006049
  H          -0.35715963174707      2.87027368395572      1.13579306433634
