20
Coordinates from ORCA-job NEB_reactant E -32.467037325960
  C           0.53415278963672     -0.56380645332498      0.37846928328231
  C           1.64117012191381     -0.65499279479794      1.10885023925737
  I          -0.00759801063231     -2.08969803862740     -0.95729808268191
  H          -0.12106516075990      0.28498193645350      0.39296655657322
  C           2.00829315360584      0.43743295880933      2.07957712608284
  C           1.30209488315358     -3.42247025585067      2.84012695925083
  C           2.55160188590082     -3.01184110010543      2.97137856680548
  C           3.28214178845157     -2.22036747004065      1.92124506667219
  O           2.45492146135117     -1.72842463839312      0.89633304563885
  Cl          0.49002530023372     -4.32058064549996      4.05712934543769
  H           0.69957711049626     -3.22948274260779      1.96656173285630
  H           3.12863107532006     -3.24349383055775      3.85470881511666
  H           3.99595630932654     -2.87708302695891      1.40941433646117
  H           3.85468723909752     -1.41780067030986      2.40411252851354
  C           1.42815502992747      0.19993548584462      3.47542485607516
  H           1.61608671937772      1.37896628298293      1.69171718437573
  H           3.09469015395222      0.53196155445290      2.13496144591263
  H           0.34572890751980      0.11472935901367      3.41976102711045
  H           1.67667854207646      1.03503887765546      4.12594125747449
  H           1.81797070005093     -0.71290478813798      3.91831870978499
