20
Coordinates from ORCA-job NEB_product E -32.480330550720
  C           2.23278349679338     -1.21917699623474      1.96845589056532
  C           0.94148693058073     -0.74119047340773      2.62507498440851
  I           1.99448736280213     -0.72159294604255     -0.13111157209063
  H           3.10065678116674     -0.65406428810883      2.30715671266775
  C           0.99943095167425      0.67420725842995      3.13779380857922
  C           2.44433669590065     -2.70880593095111      2.13356345874235
  C           3.60910786884432     -3.24518102290500      1.37833868406417
  C           3.53678681029962     -4.29365905685615      0.57890496490064
  O          -0.02121442770701     -1.45490430190477      2.69989066002736
  Cl          2.74668350940037     -2.94935135248295      3.90212329363596
  H           1.52299245868954     -3.25111295298258      1.90481269348280
  H           4.54276619844860     -2.72211317102097      1.53546029408152
  H           2.61268054891974     -4.82486921053753      0.42117030749767
  H           4.39736858236482     -4.65617209596196      0.04488503236311
  C          -0.37355016032322      1.19655654190146      3.53756005227720
  H           1.45251793133132      1.31343653937752      2.37557091555362
  H           1.67102609182119      0.66986101237567      4.00263827957073
  H          -1.03125817579816      1.22389281677175      2.67237135241007
  H          -0.29307693032540      2.19875938677121      3.94964129173466
  H          -0.82011252488360      0.54258024376931      4.28199889552798
