20
Coordinates from ORCA-job NEB_reactant E -45.505396535990
  C           2.37568895212292      0.21302362526827     -0.39618956590538
  C           1.59995559683219      0.19674216054013     -1.47595254129694
  Cl          3.13900238626223      1.56588378569083      0.35860122400007
  H           2.58013907379028     -0.71268249422919      0.11538033562549
  C           1.00891969827254     -1.11122272406895     -1.96158852980436
  C           4.00938450782586      3.43983135328173     -2.19250845611914
  C           3.15461408918881      2.52956000269644     -2.63021511907994
  C           1.71029942884518      2.48417149109423     -2.23490427840786
  O           1.16946539798879      1.17848416662997     -2.31248069941118
  C           5.44360712234313      3.52686694913098     -2.56416877858703
  H           3.70088164516019      4.20804542115369     -1.49700586542393
  H           3.46335471119849      1.75677151172503     -3.31991427237459
  H           1.12110182431304      3.04997985797549     -2.96637318218351
  H           1.55301618974227      2.92373322193683     -1.24559575070335
  F           1.24331155150195     -2.14120244293446     -1.09952205171232
  H           1.44573843083311     -1.38839534391242     -2.92799588532111
  H          -0.07634657633340     -1.00744235844338     -2.06768343933834
  Cl          5.76248917681376      5.11791856295666     -3.32179871758654
  Cl          6.44042477392734      3.40965502907832     -1.08300020746276
  Cl          5.97005201937134      2.26787822442978     -3.68578421890728
