20
Coordinates from ORCA-job NEB_product E -45.511227822470
  C           3.12484409898301      0.84495065355546     -1.71914789805734
  C           1.74455215932771      0.38832964188647     -2.16403828782081
  Cl          3.13009607367698      0.59447008200962      0.05717741307789
  H           3.88750824501810      0.17473802099736     -2.12550912766307
  C           1.46034064731311     -1.09047507790398     -1.97193971186057
  C           3.39716456469215      2.30724653656865     -2.10283946352268
  C           2.87346542493015      3.27678246828620     -1.07343266832686
  C           1.73718955029476      3.93010414362800     -1.21356096871202
  O           0.91454380057368      1.12953084043850     -2.61300942840039
  C           4.88344206719938      2.55199845145622     -2.35594589783213
  H           2.86928224851679      2.48713206190180     -3.04729461082609
  H           3.48724439578381      3.39804419640934     -0.19319821983517
  H           1.11304386084800      3.80539366857586     -2.08217541058598
  H           1.38132264072570      4.60324008118145     -0.45348468704353
  F           2.59708274338531     -1.83241556687013     -1.83541032709218
  H           0.90903623592816     -1.47490613578919     -2.83669811526286
  H           0.85901714169843     -1.23035180417892     -1.06546428032990
  Cl          5.13482661668139      4.25983915186759     -2.78444238631816
  Cl          5.87110269728283      2.17143179145027     -0.93365466041349
  Cl          5.45779478714054      1.55191679452944     -3.71833126317464
