21
Coordinates from ORCA-job R E -44.143102941140
  C          -1.30404729616600     -0.73257761443917     -2.61143959619598
  C          -0.29342498839174     -3.46912581639518     -3.37537305143510
  C          -1.31597758673100     -3.21119212918170     -2.56190890161514
  C          -1.67116665354347     -1.90142898877289     -2.07176323112006
  C          -0.46941326490817      3.00776446594592     -0.26148146821782
  C          -0.47229761015106      1.96709523841139      0.55090386047439
  H          -1.92623826527276     -4.02526699860299     -2.19456302087043
  H          -2.30622347090819     -1.86362660005728     -1.19434288203622
  N          -1.69808547199524      0.49748761979341     -2.02605001139644
  H          -0.07160858000865     -4.47168437445726     -3.69796034827489
  H          -0.69447483317020     -0.61083649470972     -3.49187114623216
  H           0.36887663533066     -2.69599895946193     -3.72463070723401
  H          -1.31502507347444      3.66966223409503     -0.31163775659431
  H          -1.30106370931631      1.70821707613324      1.19061734821877
  H           0.36245833993525      3.22515877538823     -0.90986224962042
  C           0.67037992161864      1.00456019333195      0.60884895876405
  O          -1.29531611493964      1.51597722849226     -2.55660014299593
  O          -2.39882329818128      0.48077592297197     -1.03198635133390
  F           0.51784311771820     -0.01657040877879     -0.26970475808583
  F           1.85694948568300      1.55769741161565      0.31778131560786
  F           0.79940871687238      0.43069221867784      1.81486414019357
