21
Coordinates from ORCA-job TS E -44.127138694520
  C          -0.86225696416753      0.43052944208005     -1.29055618933870
  C           0.64671058406169     -1.71511730798616     -0.14621434132040
  C          -0.68179314647235     -1.82596533684526     -0.40568739946311
  C          -1.41928172659835     -0.77813429480579     -0.98770626647018
  C          -0.24329949706444      1.04510863679373      0.83875658262106
  C           0.57091636083746      0.08504198429839      1.34313235149130
  H          -1.23896453640549     -2.65853764229824     -0.00098737277556
  H          -2.49876830746643     -0.85112034531819     -1.01786318450656
  N          -1.70149362160768      1.51532505359702     -1.69123208689872
  H           1.15656640958910     -2.47754014114680      0.41944046712411
  H           0.17283233632918      0.58477207141998     -1.54880203333580
  H           1.27695555228443     -1.06536397106698     -0.72609064860773
  H          -1.28253364466113      1.07037869934382      1.11380340965913
  H           0.23073677012604     -0.64467649301763      2.05860049429504
  H           0.17165248468866      1.93568370719722      0.39606938080905
  C           2.05500542329444      0.29877699593462      1.32720356176452
  O          -1.14918501093814      2.47880441978561     -2.18076520740833
  O          -2.89585123730510      1.42224134955973     -1.49717733220414
  F           2.75231035099673     -0.81570931713677      1.59251340738095
  F           2.50560362696050      0.76564899237758      0.15037993669481
  F           2.43413779351841      1.19985349723408      2.25318247048927
