26
Coordinates from ORCA-job NEB E -54.792697840360
  C           0.01438585656599      0.94900074594481      0.37873469646848
  C          -1.22042171474905      0.26101800741561      0.25628391677976
  C           0.10094303413093      2.31041336001139     -0.25377735393313
  H           0.40865838548607      1.00098898370776      1.39453255967446
  C          -1.83554025622439     -0.44860766473254      1.43210829547114
  C           1.10993838684479     -0.35056394395605     -0.52485435483400
  C           0.54324050626164     -0.46625952274380     -1.80115519836118
  C          -0.82850775836752     -0.87794249099712     -1.87046075601728
  O          -1.70222490089037      0.04609017757835     -0.93737623978357
  C           2.58702327062326     -0.04695534888535     -0.45289241309290
  H           0.90772770574057     -1.14583994255840      0.18741603598893
  H           0.97468567332612      0.08162004143539     -2.62347534860041
  H          -1.04813282368595     -1.85156835829878     -1.43662114084042
  H          -1.29456033449180     -0.75708369109743     -2.84253903393386
  Br         -1.18230301084502      3.45222436075823      0.77086846369596
  Br          1.83076678564300      3.18900901275206     -0.03416556935352
  Br         -0.43049415393304      2.46125359830495     -2.10139862373014
  C          -0.99731967168652     -1.60636249933109      1.98490140413945
  H          -2.80696219588751     -0.82627468406799      1.10960023834713
  H          -1.99939570162363      0.27998085397271      2.22992231680720
  H          -0.83291425826782     -2.36980959694377      1.22748892199349
  H          -1.52957049082062     -2.06612761323086      2.81317190176599
  H          -0.03603923950955     -1.25789482784138      2.35592551836935
  F           2.95709689944743      0.44377796601769      0.73975140670088
  F           3.28176567002141     -1.19110952526832     -0.60759749578682
  F           3.02815433689157      0.78702260205392     -1.39439214793498
