26
Coordinates from ORCA-job NEB_product E -54.850576075960
  C           2.51250038316625     -1.39111746380724     -0.84854104737761
  C           1.79062680382826     -2.33088687565395      0.15732803747999
  C           1.45481002053475     -0.47819258701123     -1.44887539686097
  H           3.24786761881818     -0.76693194192759     -0.32727432174922
  C           2.21567315507099     -2.18301406474320      1.58850614712788
  C           3.21859481040263     -2.27063044525068     -1.90411054632719
  C           3.84327336510229     -1.50087191683046     -3.03654859225558
  C           3.51725209570774     -1.68545587086911     -4.30180234219073
  O           0.96299576086203     -3.09969059777882     -0.24579627672512
  C           4.33189195839656     -3.06721099629571     -1.22445506652793
  H           2.50397131936290     -3.00666045983593     -2.29328053393559
  H           4.61874622912478     -0.80317613784373     -2.75035691240726
  H           2.75470760884132     -2.38561001639860     -4.60095172419988
  H           3.99595753418488     -1.12868824622331     -5.08729904370036
  Br          0.35826163532459      0.28397740944627     -0.01181208798764
  Br          2.23631601723230      1.05540722820746     -2.38301718402803
  Br          0.26196262118941     -1.38992335627607     -2.66753773084135
  C           1.40969098185622     -3.08684574814853      2.51049595305901
  H           2.11195139378622     -1.13597102243102      1.88596769585900
  H           3.28005554926547     -2.42860286725849      1.64617651284363
  H           0.35518535394723     -2.82780436706561      2.46210580907294
  H           1.75221222682866     -2.97890326892444      3.53534149058710
  H           1.52161670922278     -4.12404115106608      2.20649139612464
  F           3.87427378591894     -3.96065934122870     -0.33454534605955
  F           5.06038751038156     -3.75205423764935     -2.10839153695809
  F           5.18231755164307     -2.27474165713587     -0.54881735202207
