17
Coordinates from ORCA-job NEB_product E -29.879024918830
  C           2.88996620701933     -0.87679519663606     -0.36874862417209
  C           1.45975953109594     -1.23129034403335      0.08073425179433
  N           2.94931516997672      0.38880508901714     -1.06036595326583
  H           3.55525498251882     -0.84166393663259      0.50400525673178
  O           1.35806067656666     -2.18495116467752      1.01774958451644
  C           3.35193564031985     -2.01700810732991     -1.29926007375671
  C           2.61308582388052     -2.04677503550155     -2.59035128020124
  C           1.85516047012829     -3.06026304847026     -2.96567504812220
  O           0.49522032221836     -0.70333168273372     -0.38861112410292
  Br          5.28022227907865     -1.77080411041767     -1.66449561064025
  H           3.28491895103637     -2.98192570600859     -0.78859532543518
  H           2.74443628764269     -1.17658211057002     -3.21649389257141
  H           1.72590547759105     -3.93789543996546     -2.35266855154957
  H           1.32514786535314     -3.04938808223934     -3.90139610108978
  H           2.96663691908096      1.16303286182588     -0.40792620534969
  H           2.12328375329231      0.49651781949419     -1.64247281437845
  H           2.21208964320036     -2.50258180512116      1.34107151159276
