17
Coordinates from ORCA-job NEB_reactant E -29.858692899690
  C           1.35754019370783     -0.06024073765109      0.08729590725680
  C           2.41092912962952     -0.47048998137310     -0.62082997492584
  N           0.04197268552653     -0.05728144170354     -0.40577236122130
  H           1.49177736884299      0.39726741018769      1.05525728483040
  O           3.71537909732325     -0.37124468963929     -0.19249897505030
  C           3.25383307328472     -4.26988002874414     -2.27040422949131
  C           3.40951575264980     -3.10631547155604     -1.66886968745055
  C           3.30147046795767     -1.79198187260740     -2.38422734194897
  O           2.24585117852387     -0.99811021563937     -1.87472553535932
  Br          3.38789065688776     -5.91994710019670     -1.35475469915254
  H           3.05622019357895     -4.38666764041487     -3.32409440441237
  H           3.60154355400908     -3.04579319510100     -0.60689255728001
  H           3.05771288346443     -1.93708507184976     -3.43907966785505
  H           4.25308116763625     -1.25275747521253     -2.29723735118361
  H          -0.63280223456526     -0.38263693627005      0.27512297697288
  H          -0.02156134559698     -0.58902020381321     -1.26461599742933
  H           3.73434617713960      0.11458465158442      0.63682661370041
