22
Coordinates from ORCA-job NEB E -39.756323013270
  C           1.06185093392249     -0.63958268912184     -0.18087247555890
  C          -0.33030712285875     -0.77650260329748      0.03931580221265
  F           1.90008429128030     -1.11547782214481      0.76547557724123
  H           1.47285284638478     -0.83598777155961     -1.16965312325757
  C          -1.27324663366547     -0.70343840620877     -1.13239477065072
  C           1.22405175950503      1.19779587053971      0.11719790089891
  C           0.76237503087057      1.35394214113980      1.43770802893864
  C          -0.58950963935179      1.02653316712118      1.69277974839121
  O          -0.77327202688470     -0.54534292923726      1.23315609621220
  N           2.64456668496566      1.44671080193487     -0.13357970472598
  H           0.63359320973885      1.56753031714278     -0.71792572786387
  H           1.49526156145178      1.26937565378506      2.22684556451277
  H          -1.33580014866309      1.47734063623702      1.04272555474276
  H          -0.89619056968285      1.00291608692554      2.73036548459016
  C          -2.26766359065669     -1.86546799352880     -1.08918287135625
  H          -0.71356419331590     -0.72095061707196     -2.06752358314790
  H          -1.83304546426625      0.23691009156606     -1.07296980570026
  H          -1.74589565010212     -2.81254714079279     -1.19830362635520
  H          -2.99308590564774     -1.77125233172980     -1.89278552162621
  H          -2.79283200217402     -1.86797546634555     -0.13774283764235
  O           3.39783234274277      1.48436801540874      0.80285805699381
  O           2.95194428640713      1.59110298923791     -1.29549376684912
