22
Coordinates from ORCA-job NEB_reactant E -39.796566783480
  C           2.55210074122019      1.08677274853077     -1.11020160862294
  C           1.48335298930267      1.83826156500899     -1.35069659735619
  F           3.39665006110789      1.23527694424386     -0.05686502870508
  H           2.85439959190954      0.27566820637836     -1.74994963870213
  C           0.61020346411995      1.55047469400089     -2.54341535796278
  C           3.43510921096284      4.34068617352565     -0.79418596441412
  C           2.91736321509375      3.99153846607768      0.37731187866985
  C           1.62531498054330      3.27227265096454      0.56549094884484
  O           0.98650081106336      2.88184612727579     -0.62691557808909
  N           4.68646686053416      5.03022917689866     -0.87559828389175
  H           2.98840816482482      4.14366644255197     -1.75653344319053
  H           3.45774424827597      4.23467115274263      1.28317454359019
  H           0.91728978267036      3.95097715722807      1.05712799304863
  H           1.78255421458903      2.41601109721518      1.23441429382207
  C          -0.61425838651091      0.73194606238518     -2.13330191351675
  H           1.18224858098398      1.01321277771977     -3.29844727339827
  H           0.28104906343965      2.50338070444113     -2.95946983324157
  H          -0.30948689044807     -0.22840914922992     -1.72498012251490
  H          -1.25272317093407      0.55697920551064     -2.99496082255843
  H          -1.18689280270748      1.26548585936407     -1.37948240366038
  O           5.24761780505795      5.33601957368438      0.15402026447406
  O           5.09998746490112      5.26773236348168     -1.99083605262473
