22
Coordinates from ORCA-job NEB_product E -39.803443766440
  C           2.55767009404970      2.24639074832178     -1.03013045921740
  C           1.34898350998119      2.35311185266668     -1.97465133638834
  F           2.54574866147510      1.05193786026206     -0.35058542829034
  H           3.47696540064343      2.25965238249133     -1.63563407385584
  C           0.82773072498720      1.04174983794627     -2.48224407288826
  C           2.58322624893813      3.41786555343414     -0.04090424571467
  C           3.70543533307809      3.28372585200412      0.94815088937076
  C           3.53136960872113      3.32971770763828      2.25486376301903
  O           0.90812976783461      3.43534202564024     -2.25476144507297
  N           2.83263441154573      4.68054703873347     -0.80658139905796
  H           1.62155142190738      3.53154437376860      0.46763436797265
  H           4.68495580251960      3.15182346186486      0.50938176332152
  H           2.55827994068673      3.46315173225861      2.69701642953245
  H           4.35882370833141      3.22822199633040      2.93441967705715
  C          -0.27854862147693      1.22139669716623     -3.51152669886773
  H           0.46670161273025      0.47903521399649     -1.61598731995590
  H           1.66588722534896      0.47467442477266     -2.89500792210114
  H          -1.10242670511783      1.78627764581101     -3.08362815153694
  H          -0.64742912688013      0.25440902959109     -3.84177923546754
  H           0.09389581493351      1.76966669963446     -4.37285613231707
  O           2.24556675671252      5.65859800030371     -0.43581777150106
  O           3.65814840905023      4.62945986536354     -1.68297119804040
