21
Coordinates from ORCA-job NEB_reactant E -42.317314056440
  C           1.85545893806891      0.31866985516889     -0.16036507471944
  C           1.22347986846429      0.50397481175560     -1.32876040956735
  C           1.78413440212830      1.05782624859572      1.12519009657157
  H           2.52349516442547     -0.52380990411054     -0.09005595288589
  C           1.46642289544016     -0.45725891178533     -2.45837470818869
  C           1.24704504763107      4.73317522302268     -0.45578102319160
  C           1.08299918203651      3.67303745498816     -1.24335678741343
  C           0.04249057169292      2.61884409938131     -1.02435273361321
  O           0.33705021935654      1.42585231727649     -1.73148737476753
  C           2.20795998633241      5.72552234829716     -0.72822489158205
  H           0.65176123730094      4.88641252935023      0.43431081677601
  H           1.69844669784875      3.54012808038657     -2.12332202881672
  H          -0.90168788680061      2.95553057110339     -1.47308501651028
  H          -0.14341200869837      2.44365656884107      0.03722512729138
  F           2.56307030380481      0.47425210641015      2.04536524770855
  F           2.18665129722808      2.34772129623473      1.07013933082116
  F           0.54379510381592      1.10069679723162      1.67216444933962
  H           2.02658021807373      0.04419212620874     -3.24549986417881
  H           0.51050251371858     -0.76228704983496     -2.87741447069217
  H           2.01624106621796     -1.33067419409827     -2.12849254179543
  N           2.97851518191363      6.54433762557659     -0.95192219058569
