24
Coordinates from ORCA-job NEB E -55.137950107760
  C           0.11298010858599     -0.52188536722994     -0.45110007886940
  C          -1.15816206721765      0.00504747095128     -0.79058908230359
  O           0.19257053389098     -1.50078274966497      0.51720670332912
  H           0.77966608457326     -0.69673150741199     -1.30294579406846
  C          -1.35385938290873      0.67402483858385     -2.12608441855301
  C           0.83686215038677      0.88019868861204      0.55138287165212
  C          -0.14223118992653      1.06637100766928      1.53816762498860
  C          -1.45281823693734      1.45857653645985      1.11055362344759
  O          -1.97732067485859      0.31160625760635      0.17911795787017
  C           2.22021894214042      0.50144157577667      0.99808818056672
  H           0.88525796580537      1.62798075775829     -0.24026646625435
  H          -0.04689091029050      0.54341630391457      2.47873264793210
  H          -1.49027653044864      2.33245908314379      0.46108808449798
  H          -2.20153864785802      1.49956801848249      1.89399853847661
  C           0.10759555802186     -2.81293990757335     -0.00130408116497
  H          -0.87138950690708     -2.98660375618380     -0.45639718869513
  H           0.24895904468144     -3.47637286266124      0.84839834468897
  H           0.88986486036508     -2.99128427635844     -0.74719228808511
  Cl         -0.34308622482674      2.17019409498514     -2.31269977360978
  Cl         -0.88693270443873     -0.42972947022034     -3.43694609110495
  Cl         -3.04426958847531      1.14490357830712     -2.32763621180909
  Br          3.06194964399987      2.13348330925454      1.71699896372689
  Br          2.29476601879628     -0.84066590479068      2.38000851706979
  Br          3.33808475384652     -0.09227571941052     -0.48058058372881
