24
Coordinates from ORCA-job NEB_product E -55.170919676750
  C           2.72686605437451      0.99411994321451      0.71081398040534
  C           1.40108264912424      1.28595735235947      0.00509461445245
  O           2.63847924348527     -0.15758563197956      1.49603677990920
  H           3.52487852445704      0.89641550914405     -0.04375685918044
  C           1.52601386878408      1.82197153537068     -1.43349671402792
  C           3.00780856667272      2.19789600374661      1.64341525469683
  C           1.93188781388097      2.30177276857353      2.68865915811206
  C           1.27797561868869      3.41902360811320      2.94189314835589
  O           0.33169368867788      1.07816650935095      0.49017718872028
  C           4.37382101715074      2.08901477847548      2.31079787845186
  H           3.02365082554937      3.10869151587876      1.03167474696607
  H           1.72549626421999      1.38683967294761      3.22391894482870
  H           1.47412534744791      4.33496587119836      2.40748031579073
  H           0.51859020972025      3.46154757277779      3.70196595170578
  C           2.59177272006436     -1.36508430173036      0.76920168237455
  H           3.45209792008068     -1.45136101718145      0.09613031141399
  H           1.66851045163407     -1.44698599886196      0.18845164759008
  H           2.62785025186760     -2.15640591555076      1.51404127255195
  Cl          2.77992819530054      3.06216997472076     -1.59499780539695
  Cl          1.98703524642007      0.39248828503087     -2.40303591854925
  Cl         -0.01874683399514      2.45869566190828     -2.00178711001849
  Br          4.71268087936006      3.73399515876591      3.30729512503423
  Br          4.53456599345312      0.61822397970579      3.54854955373179
  Br          5.80313548358098      1.92986716402145      0.98617685208129
