24
Coordinates from ORCA-job NEB_reactant E -55.169306873300
  C           1.41479943620547      0.02115181811084      0.16238655286398
  C           1.40600443519889      1.31682413418355     -0.17498040848485
  O           0.96548252627018     -0.43946641581185      1.35285132357648
  H           1.80657833098572     -0.71061402953847     -0.53061733460739
  C           1.95404674948932      1.81290743186296     -1.47892088636791
  C           3.54083932453145      3.52611390766277      2.27729204745593
  C           2.84407650067769      2.42129776893902      2.06811689808444
  C           1.35009382121125      2.39627823853344      1.95868483730439
  O           0.95639418520156      2.36379919726995      0.59074690648852
  C           5.01529389239819      3.62893430273165      2.29515904201910
  H           3.04439797474934      4.47413000979570      2.44706919962686
  H           3.33738489010475      1.47662415235309      1.88355046329455
  H           0.90527981962030      3.31676716562868      2.34130051869640
  H           0.94605033146492      1.53087356728743      2.49480589518848
  C           1.08449375945302     -1.83471707774176      1.54556808104881
  H           2.13152372180195     -2.14980964360269      1.51268110774540
  H           0.51600970539444     -2.38553524355848      0.79144053235455
  H           0.67336273161271     -2.03958744565624      2.53186990472103
  Cl          3.54981943198392      2.58286331379262     -1.17524034389391
  Cl          2.18498002752424      0.54653241175859     -2.68222437847418
  Cl          0.87574806083784      3.05113496159036     -2.15907183716457
  Br          5.60348231901257      4.32094934422510      4.04688239914130
  Br          5.95083086987124      1.96412135509600      1.97937471276012
  Br          5.59092715439900      4.91102677508773      0.91397476662249
