21
Coordinates from ORCA-job NEB E -32.484179257170
  C          -1.59024881276190     -2.32534186489404      0.49084628277501
  C          -1.06076165216528     -1.39383577705914     -0.28602945738582
  C          -2.71741156515791     -2.06738068658921      1.43651917819042
  H          -1.21523746171360     -3.33589428798368      0.44567742038654
  I           0.54356745148907     -1.95959439947663     -1.61327049443294
  C           0.96281252950522      1.97908925119486     -0.88011434530676
  C           0.63926945609505      1.07302071331162      0.03941888355922
  C          -0.78445288569940      0.84849295823533      0.43594589518251
  O          -1.46204715747856     -0.12146010357324     -0.38648674012324
  O           2.15045288953295      2.31782653756557     -1.40200319958052
  H           0.19284429558615      2.60630793066692     -1.31514911619723
  H           1.36725131491285      0.42464243856280      0.50189081191275
  H          -1.37780802338263      1.75460131650336      0.29724470735917
  H          -0.84549816191088      0.52435474456997      1.48231816202261
  H          -3.07403360947924     -1.04431018291731      1.35025919209006
  H          -2.39488280249873     -2.25160471737495      2.46150261963585
  H          -3.54033763736408     -2.74716873557657      1.21992900257008
  C           3.31604644459086      1.56741105600255     -1.11459279843636
  H           4.06957095971626      2.25047805826189     -0.71826391541314
  H           3.68000695924460      1.13127029907064     -2.04741777726374
  H           3.14089746893919      0.76909545149928     -0.39822431154450
