21
Coordinates from ORCA-job NEB_reactant E -32.488478347380
  C           1.53679039379228     -0.23134089278832      0.25133482820645
  C           2.06969198169848      0.73458496253473     -0.47977962208367
  C           0.40530060776289     -0.01625021018989      1.20245367889250
  H           1.91102738379429     -1.23913420325420      0.16122354176948
  I           3.67856013153575      0.22712364844897     -1.82427232390324
  C           4.02691688009299      4.18331138816410     -0.98369240861732
  C           3.75570127156896      3.22952307060969     -0.09651564611678
  C           2.35281596835877      2.94342738637329      0.33536523239127
  O           1.66875865161740      2.00995888214630     -0.52267132911841
  O           5.21494828444799      4.53904781144213     -1.49920714903993
  H           3.24263722263088      4.81158544498359     -1.38722235815522
  H           4.52604739578116      2.59253681083509      0.30867547337307
  H           1.73477486128943      3.84178393253208      0.27368904539261
  H           2.33613416965370      2.55518695523244      1.36122305915467
  H           0.05445979274188      1.01181196743471      1.16671772274636
  H           0.72076666923026     -0.25455565879235      2.21837653765908
  H          -0.41970874289960     -0.67965546667077      0.94661506582990
  C           6.34311390540749      3.77256841280945     -1.13696745615240
  H           7.18099794758005      4.19146127343567     -1.69059835954268
  H           6.20933018659105      2.72270639975535     -1.41284252348475
  H           6.54103503732389      3.84461808495793     -0.06320500920100
