21
Coordinates from ORCA-job NEB_product E -32.495468869770
  C           2.87330365209341      1.17236717721782     -0.52960786898585
  C           1.49949098009726      1.04299540558004     -1.09627514437898
  C           2.85684554402135      0.65286353511517      0.90888881987323
  H           3.57690441146542      0.60024705894456     -1.14146306554118
  I           1.48715343598587      0.94322957779058     -3.27945083373304
  C           3.28740408718162      2.68223091490950     -0.67166280310650
  C           2.77525815645650      3.48936176817086      0.48982283715672
  C           1.64325182156675      4.16595555658983      0.45322776376918
  O           0.46726302024555      1.02334948816355     -0.52525987564531
  O           4.65802262260043      2.85050624790655     -0.94077265894320
  H           2.82664299831125      3.06940602023904     -1.59045875647406
  H           3.38874587317306      3.49434558458846      1.37880211490143
  H           1.01464649596394      4.17981657011306     -0.42203398635257
  H           1.29166315975843      4.72922263139217      1.30026540100464
  H           2.09951118455904      1.17473306095599      1.48889351917299
  H           3.82198573988081      0.78692342386497      1.38694021216268
  H           2.61636435213957     -0.40883597056736      0.91092402614972
  C           5.59851204005431      2.37209192151100     -0.00829181278932
  H           6.56119355959139      2.74104117665134     -0.35871314659910
  H           5.62991624635664      1.27734247037388      0.01457002146114
  H           5.42262061849742      2.75290638048896      1.00165523689740
