22
Coordinates from ORCA-job NEB E -60.334719728990
  C           0.51009195170501      0.48658426236280      0.73293953313075
  C          -0.86679918574171      0.69697575340383      0.93097159827649
  N           1.17105064385799      1.57432297349770      0.00069414742900
  H           1.10717323159999      0.17639117378568      1.58583448285519
  C          -1.54408942706819      0.20597011204353      2.18139423795750
  C           0.50726178952861     -0.87907068557627     -0.58310289638332
  C          -0.21210746261709     -0.27747701204124     -1.61619186668928
  C          -1.56825684969746      0.15622726919642     -1.32524153896931
  O          -1.64789674832533      1.00282124147954     -0.07626454370988
  C           1.93657021408315     -1.28922634617457     -0.86280684169732
  H           0.01792112019817     -1.61717166509788      0.04705196181753
  H           0.29451336081991      0.11189037477022     -2.48406727792938
  H          -2.24331478354366     -0.66768314672465     -1.08125387061124
  H          -1.99149120758009      0.79384997920547     -2.09678832981695
  O           2.14911021973876      2.03510173023985      0.53077938019342
  O           0.65794826718801      1.94365043539406     -1.02475592055048
  Cl         -1.82944412407746     -1.57518930684250      1.98179936890120
  Cl         -0.55317704125203      0.44738255781824      3.62439258862649
  Cl         -3.11414993520408      0.99166552642939      2.39091762059167
  F           2.61443468187423     -1.52307696746422      0.26953008100587
  F           1.98272629299435     -2.42348953576645     -1.57776832787611
  F           2.62192499151891     -0.37044872393893     -1.54806358655184
