22
Coordinates from ORCA-job NEB_product E -60.367196925800
  C           2.11623644407752     -2.06693514653341     -0.78771829690217
  C           0.82349690300432     -2.60984168604335     -0.18406295717844
  N           1.93371029208190     -0.56602251162792     -0.90563102244565
  H           2.98450196989677     -2.24066305376589     -0.14703974117267
  C           0.93335388595116     -3.04410512285911      1.28331440778261
  C           2.31444678175645     -2.61095093829129     -2.21417095748497
  C           3.46008924659968     -1.91351999045994     -2.90344062053532
  C           3.30226015251119     -1.15132381555319     -3.96787363628371
  O          -0.20781466234235     -2.62389349091669     -0.77972605333342
  C           2.60503184995758     -4.11165393259790     -2.16004591306554
  H           1.38224933458597     -2.47141858236310     -2.77479176867947
  H           4.43298688760537     -2.07856862848322     -2.46163845643005
  H           2.33389258405495     -0.98005223176958     -4.40726917696618
  H           4.13880240676748     -0.66295899093188     -4.43489598623616
  O           2.61635998016246      0.09989425859597     -0.18215380753151
  O           1.13109790428834     -0.18315125255416     -1.70451453181839
  Cl          2.31339246486677     -4.12569702633485      1.54746975276361
  Cl          1.18173284259260     -1.51297690512765      2.18402913765357
  Cl         -0.55426052848741     -3.82374351784246      1.80978929490703
  F           3.73335516757251     -4.38011332035034     -1.48829430155340
  F           1.63061216076703     -4.80671138619148     -1.55566965237130
  F           2.74646593172973     -4.62459272799857     -3.38346571311846
