22
Coordinates from ORCA-job NEB_reactant E -60.362745488000
  C           1.49452309471486     -0.07639672548851     -0.07794706817686
  C           1.45367712207813     -1.42199260072772     -0.15991476532574
  N           1.64724301614166      0.85549075098676     -1.14015510318763
  H           1.38944032158887      0.40113451623524      0.88406578585964
  C           1.15572122231810     -2.21931423589771      1.10488006209238
  C           2.62698271144208     -4.32065257001804     -2.68943504218471
  C           2.94311884670321     -3.08004434935384     -3.02175314926816
  C           2.49169437488580     -1.86375312537719     -2.28671885274007
  O           1.73584207508156     -2.25186887921253     -1.14872573085797
  C           3.10065669215439     -5.51087989768675     -3.46213562679220
  H           2.00825943116017     -4.56357591563146     -1.84005063006078
  H           3.56269494339855     -2.87319945246185     -3.88348987250094
  H           1.88876582033675     -1.23069977597591     -2.95626595812058
  H           3.36538028868138     -1.27552583681373     -1.97320578046278
  O           2.14898234527041      1.92085092648457     -0.86115575113174
  O           1.22895845537881      0.55176833371618     -2.24295167322112
  Cl          2.72784342105781     -2.52550284506311      1.90634059595588
  Cl          0.09284431044265     -1.36229576888533      2.22454202044331
  Cl          0.41126977965187     -3.77215216437907      0.69260308978665
  F           3.82835844891923     -6.34216834053302     -2.69588829009424
  F           2.07600557976906     -6.23843535587408     -3.93657857686015
  F           3.86603769882465     -5.19378668804289     -4.51475968315219
