23
Coordinates from ORCA-job NEB E -51.625116377720
  C           0.47438533872994      0.86704297225891     -0.05566950858421
  C          -0.68807065613162      1.03963191185470      0.70695787537928
  C           0.41658664621418      1.28992361553261     -1.51181911621410
  H           1.41919916820905      1.15713501409564      0.39882930505426
  C          -0.64715474995270      1.35507553310707      2.16123180904042
  C           0.53477132599362     -1.07345123572955     -0.09895113457198
  C          -0.71649929778362     -1.39661905753767     -0.61315221129404
  C          -1.88916156589389     -0.96120636353322      0.10650401479802
  O          -1.83214994295165      0.57968736583911      0.24308674531232
  C           1.76194806832279     -1.51395199672668     -0.86982333353851
  H           0.70666054784669     -1.18821754444858      0.96716313465382
  H          -0.80984513362032     -1.62123706499847     -1.66542329324028
  H          -1.93820704909011     -1.30246501609456      1.14173809236717
  H          -2.83093065383340     -1.13004690813932     -0.40608201014881
  F           1.66537231880261      1.31122003909128     -2.05286265808378
  H           0.04005650970746      2.31971002238800     -1.56496821720414
  H          -0.20735402011476      0.64033911137867     -2.13168627419780
  Br          0.59743939944024      2.78589124449397      2.57296761985995
  Br         -2.41844261157945      1.84350774006510      2.76956208569105
  Br         -0.07821003689700     -0.24325947891226      3.29184883763326
  F           1.59572044700248     -1.40569577565080     -2.20481125122872
  F           2.84494544003958     -0.78243889221807     -0.53322789841386
  H           1.99894050753990     -2.57057523611589     -0.65141261306931
