23
Coordinates from ORCA-job NEB_product E -51.661178258260
  C           2.70258151128938     -1.59614354213173      0.19365502512750
  C           1.48913439246451     -1.05762608000395      0.90539157627536
  C           2.90545810559051     -0.77329474088468     -1.09247852065678
  H           3.61154737357117     -1.48495043091237      0.79551957957812
  C           1.66996219861502     -0.68002083646518      2.37097045632080
  C           2.45776761632989     -3.11645285958062     -0.03364898500912
  C           1.15714122077388     -3.40105751511121     -0.73008743055646
  C           0.15179060903855     -4.03179366903856     -0.15374755519432
  O           0.42464393042561     -0.89010088855923      0.38370235097605
  C           3.61542139095033     -3.76712646475597     -0.80505111479966
  H           2.45197862077983     -3.59886533958850      0.95087448664673
  H           1.08226331398572     -3.06303366483677     -1.75297804773689
  H           0.20348757426976     -4.38228479357580      0.86474182809070
  H          -0.76863179728839     -4.21984424530309     -0.67678435182726
  F           4.22935874628402     -0.73667610285448     -1.41085216436608
  H           2.59309343154647      0.26565101106980     -0.93509915072733
  H           2.36896579718624     -1.19125550173812     -1.94692530986744
  Br          2.85044299476944      0.88272277975913      2.38749073142954
  Br         -0.03769478266134     -0.21760607821254      3.14454755337746
  Br          2.48015053424796     -2.11260468837553      3.39764013557918
  F           3.66679266076816     -3.36220847301004     -2.09093327185800
  F           4.80367331170598     -3.45782535553044     -0.24290347168518
  H           3.51857124535729     -4.86490252036013     -0.80904434911692
