23
Coordinates from ORCA-job NEB_reactant E -51.652567614700
  C           2.06955283977772     -0.04391387074319      0.03088168913608
  C           1.62759098383739     -0.89501564741806      0.95299540590114
  C           1.68378819586161      0.00146510808879     -1.41308426444508
  H           2.76633753373609      0.73176063506241      0.31070633510546
  C           2.03625465445714     -0.82431004687979      2.39578693797846
  C           2.49177925740575     -4.69293443325782     -0.01118725914137
  C           2.21763645200447     -3.44901160348960     -0.36413032994443
  C           0.85032730260134     -2.84296949657264     -0.27212732554625
  O           0.75179483209908     -1.93243954480404      0.81884886947881
  C           3.87215093015160     -5.27532174188202     -0.05557407956922
  H           1.73355300723960     -5.38275519663861      0.32822755797889
  H           3.01425437200636     -2.79420042889155     -0.69227342187592
  H           0.10373873596063     -3.60386195094888     -0.03420682529675
  H           0.57978594908370     -2.35521214576799     -1.21463533034216
  F           2.16158173846309      1.15454267441281     -1.97104870582233
  H           0.59489502497847      0.01660403886126     -1.54555203516715
  H           2.12228704846167     -0.82361356992302     -1.99148482497175
  Br          2.87364084409781      0.82187569368228      2.94501191894187
  Br          0.47078953488121     -1.11421691253651      3.51329744779033
  Br          3.30166426784419     -2.30118764810619      2.75146715957638
  F           3.85943780806591     -6.48834725731803     -0.66233478933546
  F           4.72773943671668     -4.50191836318623     -0.76301681370683
  H           4.29901925026848     -5.41211829174339      0.95373268327729
