27
Coordinates from ORCA-job TS E -30.749853170380
  C          -1.36016416207503      0.45004136809178     -1.21937731247239
  C           0.00835421834803     -1.95562697229335     -0.37082051749544
  C          -1.33025638539950     -1.89163501287567     -0.54747845436846
  C          -2.00751474012384     -0.74998420902156     -1.01823773296492
  C          -0.73243649634844      0.95749000103780      0.69523494447328
  C           0.17559071051630      0.06725690963254      1.22053460910545
  H          -1.93856761660582     -2.71523011345955     -0.19362849990447
  H          -3.08792497738747     -0.75072944056962     -0.96381407067172
  C          -2.14465178178607      1.64620259010673     -1.68165289867978
  H           0.46111986087934     -2.81931985536733      0.08786587522416
  H          -0.34175042593593      0.42898058610326     -1.58046812831620
  H           0.67973930978499     -1.27060927893593     -0.85261638710237
  H          -1.72329203471754      0.94003095578235      1.11425694846142
  H          -0.17430156099420     -0.72330259937827      1.86484616948445
  H          -0.39671394817777      1.92871279611814      0.37547080433341
  N           1.54277665402006      0.20831073214182      1.21230911118058
  H          -2.37521790796765      1.54475386405155     -2.74331123919059
  H          -1.58452508094340      2.56956322284669     -1.55116178510806
  H          -3.08393557278833      1.72850485218230     -1.13929059743051
  C           2.35095604787944     -0.88943415626952      1.67777703856953
  C           2.20179609619409      1.03706162986975      0.23584769996477
  H           1.81694279007484     -1.44233891251847      2.44708862177341
  H           3.27524331856380     -0.49786817140989      2.10750297460208
  H           2.61326256715666     -1.58175317977228      0.86769409866192
  H           1.62248050337708      1.93748409086412      0.05225115951489
  H           2.35292888270480      0.51526976236094     -0.71865874144825
  H           3.18006173175154      1.32816854068167      0.62183630980382
