15
Coordinates from ORCA-job NEB_product E -27.367262243400
  C           1.95787620178902     -1.49696106188686      0.01124144346372
  C           2.96233700605944     -1.31710002084845      1.12627295427221
  C           2.39918537727498     -0.70843020651442     -1.12110955007718
  H           0.98969800962809     -1.09994749147796      0.33918032102867
  Cl          2.97887555365426      0.34309270493986      1.72455007831834
  C           1.82468271148794     -2.98285281285899     -0.38296970198974
  C           0.76317859037029     -3.16646004943210     -1.42303270681891
  C          -0.32079962639294     -3.89749052041373     -1.24789193364980
  O           3.68214185763126     -2.13812189456876      1.57965884840842
  H           2.78722127203099     -3.32982045708548     -0.76785736763388
  H           1.58725316886554     -3.55983614520585      0.51210288099039
  H           0.93483412922424     -2.64510998618075     -2.35562419160486
  H          -0.50784652568621     -4.42406991939749     -0.32601568126889
  H          -1.06115912057941     -4.01049588171001     -2.02042027924859
  N           2.75072139464251     -0.11659625735901     -2.03138511418990
