15
Coordinates from ORCA-job NEB_reactant E -27.349454334740
  C           1.77137215844977     -0.18506567695082      0.00860190977602
  C           1.66140352980944     -1.06044888276586      1.02277957942594
  C           1.41325303638934     -0.39542911312702     -1.32872894806005
  H           2.17718230604189      0.79409184029141      0.21527197397329
  Cl          2.17496921888485     -0.57167183193636      2.59947832676582
  C           2.10452748595976     -4.80354721981074     -1.16245713288498
  C           1.94655122213203     -3.52692178631669     -0.87154091519276
  C           0.77941742309801     -2.99360080820461     -0.09544957850377
  O           1.19093320568853     -2.29944046394730      1.08426759127579
  H           2.94736550395748     -5.15268826348561     -1.73269529237585
  H           1.39055537549142     -5.54951675670701     -0.85454196581499
  H           2.67007205636037     -2.78959633184721     -1.18918825531226
  H           0.16004724246351     -3.81256342208378      0.27752342938589
  H           0.17007953046182     -2.33390938172910     -0.72354361068012
  N           1.15017070481176     -0.49979190137930     -2.44247711177798
