18
Coordinates from ORCA-job NEB E -42.157992465750
  C          -0.23708370903137     -1.40194961612694      0.18278049697284
  C          -1.56989495343960     -1.08746673970938     -0.15119078853913
  O           0.05427282897658     -1.45568392237894      1.50434629434096
  H           0.27717554992311     -2.11261362418884     -0.45957062018318
  Cl         -1.98188409771299     -1.45274552584774     -1.83954495048230
  C           0.49313228039898      0.36918377924526     -0.43868111021056
  C          -0.23843136995194      1.25822731879958      0.35571368179862
  C          -1.61625687795041      1.38636330056927      0.11933064185641
  O          -2.23340578393057     -0.20204333749920      0.43205025446672
  C           1.98571832501709      0.30395053526895     -0.29456462178909
  H           0.19796552024897      0.26479680480970     -1.47943780789513
  H           0.15183407577090      1.52785299137350      1.32517283314591
  H          -1.95295626812349      1.44740326817457     -0.90912821541617
  H          -2.19833823369007      1.97481863519687      0.81281947631905
  H           0.96485184502101     -1.74371705235377      1.64762712429250
  Cl          2.69274548501106      1.74999055962842     -1.09477036390390
  Cl          2.53937669004690      0.30285541618213      1.39225290526655
  Cl          2.67117869341584     -1.12922279114345     -1.10520523004009
