18
Coordinates from ORCA-job NEB_reactant E -42.180804888490
  C           1.61627874081323      0.03613556195800     -0.15017456754190
  C           1.33865463785145      0.60389686882363     -1.32414606187485
  O           1.80702515339544      0.74960752062299      1.00991308897712
  H           1.69205531322576     -1.03853923786988     -0.09641007514239
  Cl          1.08149484785325     -0.43068432463270     -2.68651997486849
  C           4.25264172803989      3.75449649999310     -1.44689592137667
  C           3.43319854531455      2.72941392311248     -1.27389658420469
  C           1.97304062636408      2.86841546652375     -0.97866220137372
  O           1.19062689679219      1.90439963661682     -1.66678925162566
  C           5.71220912763591      3.65922651195629     -1.70348103707152
  H           3.89495399587551      4.77341168357686     -1.39375764859729
  H           3.79497384307527      1.71240154639362     -1.33317692386228
  H           1.58772067505386      3.83157909086836     -1.31810013147499
  H           1.81778521040378      2.77613001392861      0.10401945576743
  H           2.09216774348664      0.15226023753811      1.70801632722728
  Cl          6.10360042257099      4.50404096197736     -3.23122301773523
  Cl          6.59602670094958      4.48134100114423     -0.37893378111930
  Cl          6.31344579129862      2.00236703746837     -1.81838169410286
