17
Coordinates from ORCA-job NEB E -33.765339930990
  C          -0.75159534950834     -0.94636715181208      0.86464529739560
  C          -0.11991584259150     -0.24700964872464      1.89293627531343
  Br          0.04744513343635     -2.59721235787848      0.34101206952772
  H          -1.83179160669749     -1.02425878348385      0.87359723841001
  Cl         -1.16886279615716      0.95303165428990      2.68896727095052
  C          -0.34326603583519      0.31842700283171     -0.61472430162231
  C           1.04112610396045      0.43184629795335     -0.50471181985973
  C           1.59219464462327      1.00427921852537      0.66536331879385
  O           1.12120151032552     -0.02882757736875      1.90644653812993
  C          -0.95187194110665     -0.26511307699530     -1.86743054196107
  H          -0.95653401066527      1.11458446680645     -0.20132579332811
  H           1.65367379397307     -0.23487464336521     -1.09498674176574
  H           1.13507208957116      1.91650615656963      1.03743814462465
  H           2.66858019327422      0.98498593404944      0.76893916444378
  F          -0.06419712170641     -1.04036659548273     -2.55815067108788
  H          -1.24499820559520      0.55126550286634     -2.54000075359935
  H          -1.82626055930083     -0.89089639878113     -1.65801469436529
