17
Coordinates from ORCA-job NEB_product E -33.815212121940
  C           2.09130128023583      0.00150207233268     -2.38623210381911
  C           0.85008496280321     -0.81567998314911     -2.61141636332527
  Br          1.81285010450992      0.78987441432686     -0.61272826829573
  H           2.97869155404113     -0.62720760596493     -2.29619278572525
  Cl          0.92314807540985     -2.37480615717377     -1.80423480963766
  C           2.28019906986057      1.10136666405614     -3.43570663990394
  C           3.46145646479094      1.96047561183543     -3.07970932520275
  C           3.37318297472382      3.24041198445405     -2.77585907527732
  O          -0.11019422022079     -0.48621585868617     -3.22483177543910
  C           2.48885939608750      0.45371075665440     -4.81084028571663
  H           1.37103374467550      1.70877559187670     -3.48734252099830
  H           4.41490035060953      1.44990131660646     -3.08792840169367
  H           2.42802264101765      3.75774403313654     -2.75938460695815
  H           4.24188722989410      3.82185463371138     -2.52231263064916
  F           3.53136792394714     -0.43798787998488     -4.76554875445603
  H           2.74869958708710      1.21260744129124     -5.55477010479868
  H           1.60470886052700     -0.10332703532302     -5.13366154810327
