20
Coordinates from ORCA-job NEB E -36.444963337520
  C           0.43115490024924      1.15342228884009      0.37495271362076
  C          -0.95311325858418      0.84733251219038      0.39490435171644
  O           0.95357740256973      1.83627636557981     -0.65830246908092
  H           0.96407059997035      1.35012217329860      1.29879038531217
  C          -1.61145236440965      0.40322942670136      1.66787618458087
  C           0.94239641765805     -0.74458545399563     -0.04243310894768
  C           0.32085675570014     -0.95562684733752     -1.27916927005219
  C          -1.07360089577273     -0.99538423425373     -1.33753249974749
  O          -1.49784809298059      0.62348066925569     -0.74486353381154
  N           2.37961026463200     -0.60310631961155     -0.02178283145576
  H           0.58038908269700     -1.21701083131593      0.86307136413076
  H           0.89241884212504     -0.70110421128368     -2.16134130803695
  H          -1.61353638990322     -1.53846276060291     -0.57267311918272
  H          -1.54911882114501     -1.00767475362444     -2.30650432065943
  H           0.34559095564866      1.77026117783652     -1.41430114618609
  H          -1.81610056638303     -0.66865169392366      1.63586076658329
  H          -2.56843001478650      0.90986432267103      1.77438240153277
  H          -0.98920448354907      0.62669261725769      2.52816526639555
  O           2.94275689221012     -0.31100365853792     -1.04904573214765
  O           2.91958277405367     -0.77807078914419      1.04994590543580
