20
Coordinates from ORCA-job NEB_reactant E -36.473302432030
  C           2.18390640786521     -0.49780375372449      0.26983716482012
  C           1.42360929868677     -1.51090915452930      0.68175599154452
  O           2.79609598557428     -0.40101457305673     -0.96848081528121
  H           2.33461030498528      0.33582610214436      0.93932535174233
  C           0.77770034369946     -1.50752844723210      2.03541356533113
  C           3.86354949724801     -3.30596591558014     -0.17922135730115
  C           3.12736494415261     -3.10110699089455     -1.26739495691063
  C           1.65393736872901     -2.87954617290710     -1.26685963009046
  O           1.09350446604116     -2.65987542070045      0.00166423321876
  N           5.27696277231943     -3.47820792414343     -0.26079678199879
  H           3.47905334975809     -3.34761396700007      0.82773997076149
  H           3.61327453063008     -3.07827525494462     -2.23386429400632
  H           1.15787862571283     -3.78132929457522     -1.64712249539068
  H           1.42262401039528     -2.05156345804405     -1.94825256153272
  H           3.45186941617849      0.30125665753598     -0.94116686326964
  H           1.11396950184168     -2.37086947082415      2.60648678533157
  H          -0.30197132026595     -1.58569206496652      1.92506929616064
  H           1.01885773720102     -0.60134240312052      2.57981099183962
  O           5.80612577342293     -3.44835148431159     -1.35281805074660
  O           5.86607698582432     -3.64268700912529      0.78867445577802
