21
Coordinates from ORCA-job NEB E -39.817491057880
  C           0.28247738744140     -0.91052575274082      0.06903944379597
  C           0.46073135087011     -0.58306952980685     -1.21871346025485
  O           1.23521267446604     -1.59738176668073      0.74642930631997
  H          -0.62139597446398     -0.65034214363691      0.61069557276849
  C           1.69695269029446     -0.99249590963597     -1.87582687140583
  C          -0.92363564603649      2.54666927439722      0.54120842436657
  C          -0.58344136811111      2.10711800686757     -0.65462904123666
  C          -1.30221881528573      1.01763394737698     -1.39360734061092
  O          -0.40108701864821      0.11423302904699     -2.02482806203334
  H          -0.38712581136837      3.34444579920800      1.02470300863072
  H          -1.76071211003717      2.13585488810627      1.07939308287976
  H           0.26083784747076      2.52579503856745     -1.18732799657571
  H          -1.86074292365713      1.44179646600729     -2.23483216606939
  H          -2.00195995813116      0.48595344185436     -0.74008994743015
  C           0.91623057199931     -1.89447519215848      2.09337085001972
  H           1.78746606321759     -2.40034967685887      2.50360166461094
  H           0.04551046313046     -2.55201907357422      2.15246205859356
  H           0.71682038616422     -0.98155917483449      2.65983263718821
  Br          3.25756546775959     -0.02341333488475     -1.64343306562807
  Br         -2.68748896658359     -0.48342834378954      2.16180706484022
  Br          1.87000368950902     -2.65043999283052     -2.66925516276918
