21
Coordinates from ORCA-job NEB_product E -39.884784071610
  C           1.10142206214419      1.24100425346357     -0.32632560310754
  C           1.56983876200834      0.99026886268614     -1.75451579610842
  O           2.28062849662516      1.06521369424249      0.43064739790596
  H           0.34951474531336      0.48904767202491     -0.02983656030180
  C           1.47623100873477     -0.45308215863355     -2.21014945029749
  C           0.48616515358452      2.64527218133177     -0.24072798813550
  C          -0.76383878762522      2.69664102594611     -1.06437818066184
  C          -0.88932650643731      3.39696730225368     -2.17514883406229
  O           1.99374123813292      1.82493154493345     -2.49413864763352
  H           0.25623407311925      2.86353052094193      0.80418148082881
  H           1.21911617725006      3.36678148590146     -0.60401274464667
  H          -1.58272537951658      2.08688314731732     -0.70283515139077
  H          -0.08310277436448      4.00176643034773     -2.55583009401234
  H          -1.80082044158900      3.39427101889840     -2.74730879725065
  C           2.07373230228585      0.86722671642320      1.81130468501187
  H           1.65728407272544      1.75737489282288      2.29112467573624
  H           3.05680760376614      0.65803439439593      2.22650954683620
  H           1.41230637802876      0.01225707458583      1.99081390839217
  Br          2.09618426536828     -1.70637520524131     -0.88776398467872
  Br         -0.43548721526529     -0.73313920161940     -2.52544096667848
  Br          2.43649476571085     -0.70177565302255     -3.86056889574523
