21
Coordinates from ORCA-job NEB_reactant E -39.879998761390
  C           1.13739141107755      0.16680115651776     -0.10089551141178
  C           0.86425894655601      0.42626509696892     -1.38633538071171
  O           0.43147335562365      0.68067142429748      0.93765408493143
  H           1.96429705675396     -0.48279557738229      0.15588317383048
  C           1.66253586683823     -0.15049950105516     -2.50101621025550
  C           0.63666483363144      4.58219854576832     -1.73500182614937
  C           0.65659865545657      3.39931071106460     -1.15223504020460
  C          -0.47508836047212      2.41801372805783     -1.21044001382009
  O          -0.11003469024296      1.22870549107080     -1.90662869811211
  H           1.47327465814657      5.25670521352791     -1.67726477323289
  H          -0.22189714632150      4.92622598859869     -2.28760769653297
  H           1.53084296309154      3.06641490373075     -0.60772927240226
  H          -1.30698218579758      2.81633599393853     -1.79482502391888
  H          -0.81789414832940      2.16831952869520     -0.20023604531408
  C           0.93982317744643      0.37719421308381      2.21867489069044
  H           0.24509423394972      0.81787002218814      2.93053683936988
  H           1.93431321440401      0.81056749543266      2.36244987108763
  H           0.98989702000731     -0.70400561619395      2.37682508147881
  Br          2.63719146845919     -1.75562464725360     -2.06228740761348
  Br          0.50038090311223     -0.54835969593351     -4.00279404725502
  Br          2.98455876660915      1.19998552487712     -3.12232699445393
