23
Coordinates from ORCA-job NEB E -45.149485090400
  C           0.46329703404645     -0.87679247543638      0.24730431032259
  C          -0.76324895952902     -1.19853601697291     -0.36192390573589
  C           0.54150256889066     -0.90442696577991      1.75216362982184
  H           1.34368786225243     -1.29459996806550     -0.23456240585149
  C          -0.78065842636575     -1.71767685379997     -1.78825989317396
  C           0.51072024339127      0.97679871467747     -0.22303366167270
  C          -0.68590936693779      1.47068395708394      0.30566842945077
  C          -1.90720508798041      0.93978286235736     -0.20962133771540
  O          -1.86239480450707     -0.63997992688919      0.07219841042003
  C           1.80778423783228      1.56613278130599      0.28781559307996
  H           0.57094856241067      0.84426414392651     -1.29864785357435
  H          -0.67818757134163      1.87040382515467      1.30885973117893
  H          -2.01573572220198      0.96556971033617     -1.29130352583221
  H          -2.81261786324396      1.24466189303423      0.30168523950009
  H          -0.35865325017123     -0.48781571675105      2.19537477048414
  H           1.41169228378180     -0.37510650171442      2.12465566085618
  H           0.62989947858362     -1.94469133141957      2.06385853528553
  F          -0.49179309240326     -0.72788577825864     -2.69528968469648
  F           0.16391629245916     -2.66544551007500     -1.97870770550675
  H          -1.76023924439012     -2.13388163976616     -2.06383712321782
  F           1.75645183042631      1.89794621636861      1.59933806322345
  F           2.84696649614011      0.70792520937237      0.15509602821559
  H           2.06977649885746      2.48266937131141     -0.26883130486205
