23
Coordinates from ORCA-job NEB_product E -45.185850958870
  C           2.79857659818489      1.24116336619593     -0.32485413449349
  C           1.62633324922000      0.55338094866135     -0.98072758123803
  C           2.74258923283837      1.01905311302495      1.18377980722990
  H           3.71294910065002      0.79454103189624     -0.73523428869988
  C           1.67419361507757      0.44748468454539     -2.52870679662829
  C           2.79311948620860      2.73712669064505     -0.75097064996450
  C           1.69930793101723      3.51316604751379     -0.07083402367277
  C           0.57689944656677      3.86518471255747     -0.66744561072590
  O           0.68104738826764      0.09475368790807     -0.40441022255937
  C           4.14583724455166      3.40383840882974     -0.48252729090714
  H           2.65866922543197      2.79052513327683     -1.83579211042758
  H           1.88570103483555      3.76807137221322      0.96259975854067
  H           0.37318758662640      3.61780732106072     -1.69618744052889
  H          -0.19042444251371      4.41013008674408     -0.14604156140886
  H           1.79842309563672      1.37841416445771      1.58387166939801
  H           3.56118712426448      1.52479724669616      1.68417507594024
  H           2.81376335310325     -0.04549926227681      1.39374671411451
  F           0.99745820330996      1.48661091943401     -3.07945353583674
  F           2.93364433271623      0.51384602641190     -3.01374648434079
  H           1.20793235570605     -0.48530532311960     -2.87941535116988
  F           4.43174173576752      3.50391431301235      0.83712078179058
  F           5.15995680016891      2.69262151035854     -1.02952827478492
  H           4.18340630236391      4.42157379995289     -0.90221844962687
