20
Coordinates from ORCA-job NEB E -49.503614964500
  C           0.86587555451848      0.46905793684662      0.25249680584683
  C           0.01297031978448     -0.29337477633971      1.07420332302214
  C           0.70399561472618      1.98308269050375      0.30896484828962
  H           1.92517282625815      0.22177631238993      0.29826394700970
  C           0.49800714961085     -1.65596133028973      1.53578995099602
  C           0.29194286484839     -0.10613324350927     -1.45114818017954
  C          -1.08380584701594      0.13133982399422     -1.42320389589066
  C          -1.86363565992204     -0.53827064692083     -0.41612776090496
  O          -1.28391712047150     -0.12097920795512      0.97853912461714
  I           1.43081754373909      0.83513010277082     -2.98444239040236
  H           0.63952839263364     -1.12711613617814     -1.35310397245787
  H          -1.48232573419849      1.03088436702982     -1.86675941819215
  H          -1.76869264582802     -1.62365913234594     -0.39690318480678
  H          -2.90013828596835     -0.22314816543352     -0.35783069557471
  F           1.72550235910776      2.59507756672767     -0.32512854975590
  F          -0.42740756558471      2.44762786313140     -0.25179911240989
  H           0.71774269989324      2.32321118105614      1.35769264048600
  F          -0.22964998350950     -2.14309649201037      2.53726889436604
  F           0.45202252320661     -2.58689587882785      0.54572607729463
  F           1.77599499417167     -1.61855283463987      1.93750154864670
