20
Coordinates from ORCA-job NEB_reactant E -49.535495292730
  C           1.86502169884304     -0.07522240667194      0.02372583788400
  C           1.25368047960428     -1.02445893803919     -0.69759222233366
  C           2.04862217222132      1.31133655347075     -0.52027888571087
  H           2.25038510478641     -0.28330334054289      1.00451483055857
  C           1.09147415166441     -2.41527034826191     -0.10310799649390
  C          -0.05645283016603     -1.69211303333247     -5.14388382548260
  C          -0.24960466994577     -1.07465691459094     -3.99520378655100
  C           0.03537086767351     -1.71410641141155     -2.67071997254632
  O           0.80640695137186     -0.77232108340770     -1.92986589613072
  I          -0.49389084087110     -0.81821999958714     -6.99729644286235
  H           0.31708923557842     -2.69950715263400     -5.22337942590121
  H          -0.61275468232541     -0.05947729765063     -3.94086753351195
  H           0.57799599726311     -2.65631971549605     -2.80411116715466
  H          -0.91337665892960     -1.91091994862841     -2.15222614552167
  F           2.83863982925036      1.30960690112744     -1.62343725727762
  F           0.86702969984644      1.85134205820152     -0.91010336929359
  H           2.50196113937193      1.99463446855778      0.21318069827169
  F          -0.19604823238647     -2.78730820421671     -0.01026038399490
  F           1.70638839852229     -3.35673413303027     -0.83757050586066
  F           1.59976218862698     -2.50058105385568      1.12668344991343
