20
Coordinates from ORCA-job NEB_product E -49.534573734540
  C           1.73925812670621     -0.35320280657641     -1.74784686249052
  C           1.09770895520631     -0.88850424417892     -0.48787852518982
  C           1.70890193362310      1.18860344027152     -1.73459934407140
  H           2.80019095711144     -0.63614294120045     -1.75170183007258
  C           1.37067595120273     -2.40096327298758     -0.21433125004664
  C           1.05512211301259     -1.05089943536481     -2.94420674664093
  C          -0.42749463803398     -0.91171194130823     -2.96946633995685
  C          -1.23532468170513     -1.94806631562841     -3.11005238243179
  O           0.41693676071362     -0.26693144057632      0.27073993008097
  I           1.90781366706479     -0.32792766143895     -4.82482535682613
  H           1.33152646680864     -2.10660494233543     -2.93573174708224
  H          -0.82099269322991      0.09074741263750     -2.89787657151143
  H          -0.86684788138507     -2.95693157659280     -3.19845749011492
  H          -2.30318328644599     -1.82407787372332     -3.13428365875985
  F           2.88189834176747      1.66709645234601     -2.20189539968560
  F           0.74658558968242      1.71585994672967     -2.51159531469482
  H           1.56481745955754      1.57867881723174     -0.71433114344308
  F           0.40485690752608     -3.16834286663826     -0.73491778952722
  F           2.52625027300788     -2.81284370169766     -0.75530888154905
  F           1.42869967780926     -2.64673504896889      1.08906670401392
