22
Coordinates from ORCA-job P E -47.659221864870
  C          -1.12414591303863      0.52855628907363     -2.29759869093360
  C          -0.67277492473689     -1.55050402823157     -0.17717723102517
  C          -1.32060345492829     -1.82571270267808     -1.49593194287060
  C          -1.51967790646227     -0.91637974515283     -2.43433181112922
  C          -0.79198200103151      0.87906654279722     -0.84293303371733
  C           0.05345208060888     -0.20286340056878     -0.16843354576363
  H          -1.63782381787706     -2.84410042515444     -1.66048015290412
  H          -1.97338659192219     -1.19825261468040     -3.37325362450262
  C          -2.24936820642349      1.41064322118040     -2.82469410758070
  H          -1.44235328607574     -1.54826573692707      0.60026488843003
  H          -0.24783979752786      0.72194707421944     -2.93408200864556
  H           0.02571023994582     -2.35545554204151      0.06368983511769
  H          -1.71828542884107      0.96953290607512     -0.26962298254994
  H           0.25758760870289      0.10504678979245      0.86300095235425
  H          -0.26561403462210      1.83490991204560     -0.79526461420461
  C           1.42947452530580     -0.33494868911487     -0.81371649692063
  Br         -3.93374957194679      1.00360297955834     -1.91998159714528
  Br         -1.86939420385684      3.31332927189566     -2.57188191847114
  Br         -2.52153155291206      1.13725283579056     -4.74148388678814
  F           1.42243848682494     -0.88522230821576     -2.03529349065664
  F           2.03879280862117      0.85473753820722     -0.94181290734086
  F           2.24018494219329     -1.09936016787032     -0.06507163275216
