22
Coordinates from ORCA-job R E -47.559507007940
  C          -1.44377352022325     -0.25146422754110     -2.93300820486856
  C           0.22658572653387     -2.71518039896454     -2.50733670140223
  C          -0.99576149251432     -2.50419023082462     -2.03022968911730
  C          -1.71643671192600     -1.24856140482796     -2.09021761382399
  C          -0.37876711313259      2.35043287582589      0.34616757702426
  C          -0.48773729969923      1.04633180106557      0.51916937683182
  H          -1.51753201469652     -3.30160794792550     -1.51917778726430
  H          -2.53942422319520     -1.15346139973540     -1.39236824172092
  C          -2.16546773617524      1.02585030282830     -3.02562670545348
  H           0.70425400352804     -3.67417595929543     -2.41055446780936
  H          -0.64881544299559     -0.34461016582597     -3.66129040391871
  H           0.80654813063061     -1.93848684064114     -2.97567340994700
  H          -1.20403013219171      3.00952203746535      0.55047110806858
  H          -1.38486506752304      0.56388163297362      0.87466772727229
  H           0.53259910605154      2.80196164869185     -0.01013609366304
  C           0.65246663628789      0.11853687605220      0.22507671449709
  Br         -3.42843207264435      1.36205096479471     -1.59371884435733
  Br         -0.89305321239164      2.53154426022206     -3.04668032161024
  Br         -3.18146538680393      1.09879950491443     -4.73671611302122
  F           0.35866712810358     -1.15531632707531      0.52669565392318
  F           0.99808130703846      0.12496288643722     -1.07921406390285
  F           1.76898938793864      0.42738011138577      0.90193050426333
