22
Coordinates from ORCA-job TS E -47.544517758700
  C          -0.75617201188485      0.38437212980616     -1.16125539378415
  C           0.60091087134742     -1.86764540438892      0.00296875589042
  C          -0.73590415100083     -1.85896312493796     -0.22260606251718
  C          -1.40044634301727     -0.76673277639468     -0.81795595779874
  C          -0.06189008352558      0.94881664520861      0.97852485393382
  C           0.69240163045521     -0.06451582067517      1.47168856248266
  H          -1.35652498046437     -2.62688404310161      0.21587923903313
  H          -2.48252449976876     -0.78849502260507     -0.82852521930130
  C          -1.49467851427270      1.53748819624598     -1.72635255051277
  H           1.05181807966112     -2.66858240036604      0.56492199732384
  H           0.29904784781420      0.38308488680460     -1.39116422901354
  H           1.27796509246772     -1.28807821311086     -0.59852147767127
  H          -1.08895510860561      1.05134641762193      1.27878671891469
  H           0.31992632150909     -0.76122549815438      2.20324690524671
  H           0.41439402962560      1.80561374667225      0.53310842993210
  C           2.18548768135742      0.04773630111516      1.41506850537056
  Br         -3.11490629791244      1.96530220981118     -0.72325633604291
  Br         -0.39536474410327      3.14852894851309     -1.80934523694803
  Br         -2.05435367157691      1.11941417735923     -3.59883030993319
  F           2.81669167715266     -1.10924423641678      1.66189180359196
  F           2.63187101476987      0.48591264791079      0.22436828264660
  F           2.65120615997228      0.92275023308250      2.32735871915660
