21
Coordinates from ORCA-job NEB E -29.163302649090
  C          -0.16322959751855      1.21167993945991     -0.89674215290946
  C          -1.51723318465667      1.31766702601153     -0.65946946912619
  H           0.16035301852927      0.53110857618911     -1.66304447054243
  H           0.43073988811054      2.10283157972136     -0.77227173676579
  O          -1.97592330462546      2.42360701039659      0.00045635841107
  C           0.29241857628610     -0.01385136473784      0.66222944966966
  C          -0.58103484377038     -1.06158618990242      0.42979762570061
  C          -1.97924663699881     -0.78811760175069      0.47933577855962
  O          -2.30286468889139      0.28666732566809     -0.71728006052981
  C           1.79227361517164     -0.17185169560209      0.60023925037903
  H          -0.00799403185513      0.71234590369081      1.41262292575273
  H          -0.26373314368840     -1.88527475753664     -0.19052432577643
  H          -2.32421682870179     -0.23100179996042      1.34810217304530
  H          -2.64578413882856     -1.60053943704380      0.21849957997163
  H          -2.90484030836085      2.28511084656101      0.22817284386044
  C           2.30363002175944     -1.17215656110335     -0.42925393498618
  H           2.12558150763616     -0.48697712911908      1.59474481415210
  H           2.24256479032117      0.80465098678974      0.41032317663292
  H           1.98958917391732     -2.18201284759620     -0.17976047873647
  H           3.39094762869313     -1.15266924177111     -0.45247703322073
  H           1.93800248747120     -0.92963056836451     -1.42370031354162
