21
Coordinates from ORCA-job NEB_reactant E -29.191369724120
  C           1.71908550746695      0.37777101989537      0.04873174201111
  C           1.33000416060785      0.59044078078648      1.29904375463216
  H           2.20547318974503     -0.52154637873159     -0.26873638002605
  H           1.53784429380014      1.13666638414690     -0.68560832800863
  O           0.71998742163714      1.74163933055505      1.66717109425376
  C           4.41246915714744     -2.04845569778797      2.95148998463378
  C           3.58474441477434     -1.35686189829668      2.18698275585354
  C           2.09112371588936     -1.48802350823790      2.23019865728731
  O           1.43837322037434     -0.23930612726490      2.37662685784876
  C           5.90268691550203     -1.94410199145345      2.90346398090664
  H           4.02065238450406     -2.77353781959098      3.65416648841168
  H           3.96225537566493     -0.62601580985489      1.48523184359511
  H           1.78336888598690     -2.06941174730360      3.10325993520417
  H           1.72276390155420     -1.99138577764838      1.32518605940510
  H           0.51997080886622      1.68205012028819      2.61031446281717
  C           6.53540583160777     -3.28194425599998      2.52081843485247
  H           6.26956066910828     -1.64764008580819      3.89024815394144
  H           6.19824067266427     -1.17678947641398      2.18624117841390
  H           6.26096192123097     -4.05319475639110      3.23701628195398
  H           7.61926295711235     -3.19774110548504      2.50283613730789
  H           6.19566459475542     -3.59201119940336      1.53531690470471
