20
Coordinates from ORCA-job NEB E -49.313122222800
  C           1.05979153512521     -0.49881313622071     -0.29677046390509
  C           0.39856551662519     -1.35231245415564     -1.21230195577303
  C           1.33325120277972     -1.04489444223504      1.08793699779029
  H           1.96032514733036     -0.02558702739553     -0.68061959535450
  H           0.66647127148546     -1.26168292964963     -2.26913132179117
  C          -0.24566122185105      0.90413827009582     -0.29049187773029
  C          -1.44557417004779      0.25795104532306      0.06225904893764
  C          -1.92904636549990     -0.76691860796231     -0.79050550758154
  O          -0.73428758139268     -1.88155301942153     -0.91405744003994
  C           0.16104821363685      2.11606385182413      0.51074045553753
  H          -0.12023272434942      1.13858486552238     -1.34515917684254
  H          -1.76753171829297      0.27898409282584      1.09005156826627
  H          -2.76078890359074     -1.34947966594384     -0.41437965184280
  H          -2.03327116521212     -0.52120490785542     -1.84342410369966
  Cl          2.36170302725573      0.03624010113519      2.04865864690741
  Cl         -0.07481886217549     -1.49959270921281      2.03530808137087
  Cl          2.30753421102219     -2.55029403761315      0.84212163278260
  Cl          1.83994607262194      2.59527651485304      0.18937701375650
  Cl         -0.88326910009505      3.46794701190734     -0.05928171960629
  Cl         -0.09415438537544      1.95714718417881      2.24966936881773
