20
Coordinates from ORCA-job NEB_reactant E -49.359049234940
  C           1.58391188166506     -0.12097911752621      0.11701836915531
  C           0.81998576834073      0.83580543898044     -0.41426837648515
  C           2.26867698696782      0.04243421983260      1.42222569316744
  H           1.72673261539886     -1.05237455021986     -0.40044711465764
  H           0.33470432100653      0.67814202500560     -1.37146579529724
  C          -0.36075179023724      5.40076843072114     -0.12715911494494
  C          -0.27180095538557      4.18074827868540      0.37735061798597
  C          -0.23423068861358      2.93787138966484     -0.45242037013788
  O           0.62148269512043      2.01279246995424      0.19213131067264
  C          -0.43394047078829      6.65831793016569      0.66048942540794
  H          -0.40337848221630      5.56673196332853     -1.19512610501293
  H          -0.21825862241911      4.00723198221353      1.44189000947165
  H          -1.25092553585257      2.51834492189578     -0.51686065838937
  H           0.11957377689874      3.15031607356480     -1.46950812581082
  Cl          1.09179762597505      0.35343558792528      2.73156038669964
  Cl          3.18556521364727     -1.41393563801117      1.83936060387951
  Cl          3.40320889608556      1.42594855097501      1.38646605096285
  Cl          0.89850357686519      7.74128813835157      0.16043598400459
  Cl         -1.98169426074898      7.48282958906963      0.29650299857578
  Cl         -0.33146255170961      6.41808231542316      2.40722421075266
