18
Coordinates from ORCA-job NEB_reactant E -40.026044733000
  C           1.95924907628677      0.26704512360089      0.28478745076795
  C           1.39605337530990      0.69839263436826      1.40938200616401
  O           2.51974100869818     -0.97914683889187      0.12858475504597
  H           1.97587006364274      0.92267844480772     -0.57199005397097
  I           0.54749167159603      2.62781972626407      1.43499896542096
  C           4.42754198887177     -1.37381175509393      2.37686650764628
  C           3.50083731521453     -0.61170521674256      2.93327424063387
  C           2.05023706919054     -0.98097460985136      2.95729865848676
  O           1.23209192722771      0.12476317727573      2.62534154520620
  C           5.85672730467778     -1.03810511828698      2.22131137900853
  H           4.15917417648922     -2.32199077221202      1.92682136526234
  H           3.73543756118356      0.34924933071517      3.37295094119122
  H           1.74732989602900     -1.24248448150685      3.97686962796469
  H           1.85397482012964     -1.82594747922186      2.28941589278284
  H           2.97581178078089     -1.01805794943597     -0.71817382156059
  Br          6.98444600362701     -2.52738773746171      2.84414306709439
  Br          6.20798709738000     -0.78999224214964      0.28853303903216
  Br          6.42729786366472      0.57665576382290      3.13288443382339
