21
Coordinates from ORCA-job NEB_product E -39.879685585840
  C           0.46003065260218      0.22670242443505      1.85633708662947
  C           0.87393856835972      0.87673043299813      0.53876734709708
  O           1.47531396177619     -0.55286881156104      2.42353538767965
  H          -0.43985499964779     -0.38303377489074      1.64613366512015
  H           0.02394262192566      1.33593787851773     -0.00224327484631
  C           0.12630939394881      1.34214702027818      2.87356243041314
  C          -0.61305307985832      2.48604061403830      2.23801359414526
  C          -0.16425094681141      3.72713832727499      2.22898525271868
  O           1.98600027395079      0.89273275520147      0.10669067791184
  C          -0.67182634811149      0.80549482469125      4.05617652890531
  H           1.08918580215033      1.69433449129189      3.26617360653988
  H          -1.57170112746375      2.23911446675104      1.80014583149410
  H           0.78248689634781      3.99601341175048      2.66745724332857
  H          -0.72837378951277      4.52498452596491      1.77940454370825
  C           1.72795868069528     -1.77423828598057      1.76531879559669
  H           2.46602591538404     -2.28868356809759      2.37593555450451
  H           2.12833138817327     -1.61416705008943      0.76119018266618
  H           0.81660188950403     -2.38086721607392      1.70313990249650
  Br         -1.01204359801574      2.26172336317627      5.31868768901005
  Br         -2.40570781827411      0.10443645070461      3.50126786526099
  Br          0.24288566287727     -0.59657228038103      5.03572008962001
