18
Coordinates from ORCA-job NEB E -42.230388027590
  C           0.66213554278239      0.81389074953581      0.97270575017315
  C          -0.66585996591480      0.38526726793582      0.99422586599157
  Br          0.93707633285812      2.68591065854689      0.76883177495763
  H           1.39017068345314      0.37303733815639      1.64027508044594
  C          -0.88105156260861     -1.00926846061576      1.60792528063514
  C           1.23432702675943      0.08268741640658     -0.87823995012949
  C           0.01617840394734     -0.14519340725588     -1.54440351530085
  C          -0.96329500671719      0.82657391734116     -1.58506318099338
  O          -1.54086700791696      0.82618753324684      0.20744065545117
  O           2.08268491256220     -0.92206326313239     -0.61623423141621
  H           1.78239234391245      0.99648509130133     -1.07823478188824
  H          -0.29209301964971     -1.18156830412340     -1.64120476728681
  H          -1.91911214171448      0.60274123103059     -2.02897076168601
  H          -0.68618054743906      1.86982565524961     -1.58907481195284
  F          -2.16363856615635     -1.31776061091163      1.74885067909570
  F          -0.32942968483788     -1.97821856103165      0.83102921754598
  F          -0.29378399250993     -1.12931022016255      2.80625413614126
  H           1.63034624918993     -1.77922403151775     -0.61611243978371
