18
Coordinates from ORCA-job NEB_product E -42.257236153460
  C           2.82479552027895     -1.43298155718440     -1.36747060459626
  C           1.52024990832253     -2.14347904078338     -1.13071308717247
  Br          2.44836201873981      0.43851124538764     -0.99284304198453
  H           3.58425909845635     -1.75379203930745     -0.65102818232276
  C           1.46493620736906     -2.83343810474004      0.26497270442063
  C           3.36696333284661     -1.61542845219602     -2.79937919792043
  C           2.39357003188222     -1.17188988383941     -3.85554406730020
  C           2.42870933229661      0.02144241904090     -4.41795167688414
  O           0.58606899644197     -2.19245603261537     -1.86995428679866
  O           3.66555419082524     -2.99236508633814     -2.87217540814186
  H           4.29085831464248     -1.01574816187543     -2.87366017115876
  H           1.64420749839604     -1.90342170854388     -4.12132685858239
  H           1.70819638115735      0.31278250798318     -5.16128095340228
  H           3.16803040756346      0.75874715299416     -4.14991434722177
  F           0.27441936934009     -3.36481761851074      0.51447129654126
  F           2.37809251008944     -3.81191588043836      0.34299996128193
  F           1.74275410247083     -1.96659865298508      1.24984370967782
  H           3.89607277888098     -3.21965110604815     -3.77964578843512
