19
Coordinates from ORCA-job NEB_product E -48.585119276060
  C           1.55148964064505      0.28202348087135      2.01725042613268
  C           1.11909066654458      1.15583797950091      0.85748825195566
  C           1.35706220172961     -1.20180949851816      1.68202029948849
  H           2.63290081860358      0.44481623661495      2.16309661754226
  Cl          1.53997140395651      2.84776893114324      1.13785781437345
  C           0.88871599583932      0.73279432227708      3.33630122251660
  C          -0.48263251744424      0.19641077633109      3.61071301090873
  C          -1.57733675800229      0.90783838224704      3.41724173118190
  O           0.59087641155041      0.83573136037365     -0.14735989198979
  N           1.81184029236395      0.41015484864896      4.48728687104687
  H           0.85496204054014      1.83037575723222      3.31802918959533
  H          -0.52836861028436     -0.80618589617781      4.00737920037792
  H          -1.54763880348434      1.91471021547189      3.03361648129095
  H          -2.55149277451499      0.50275787228382      3.62306395823974
  Cl         -0.30945800989529     -1.58830014214358      1.21857524428279
  Cl          2.43406797826907     -1.62387647263312      0.32545924676548
  Cl          1.80958888002374     -2.20539233677885      3.08561598523096
  O           1.29285712439985      0.13255256246997      5.53112330574175
  O           2.99290401915969      0.51819162078535      4.28254103531824
