19
Coordinates from ORCA-job NEB_reactant E -48.572925325810
  C           1.53678325399668     -0.10866276776075     -0.12820100938394
  C           0.93287081808380      0.71136026452705      0.74150501009057
  C           2.01798929687585     -1.45291625836936      0.27356391751072
  H           1.69086167535585      0.19343942694767     -1.14842678403371
  Cl          0.39371003791930      2.26473447022124      0.21485684553191
  C          -0.25868167658484      1.12317214078672      5.37835607580107
  C          -0.07682864140178      0.53243609870187      4.20466346917919
  C           0.08190449647953      1.24741002302543      2.90845628670906
  O           0.73306783197066      0.36689577404965      2.00893449826635
  N          -0.43175560594947      0.35041553865392      6.57846812825010
  H          -0.29417865728626      2.18891560618692      5.54649777769196
  H          -0.04565892790396     -0.54939831802427      4.15184269723172
  H           0.66115949489637      2.17141061446681      3.02970410901073
  H          -0.91133116706916      1.51551908132411      2.51772739512581
  Cl          0.67563357456863     -2.46270008071080      0.88668023417021
  Cl          2.75575201523641     -2.28228631021615     -1.10238214626510
  Cl          3.23555953410576     -1.33672595124469      1.58076639809920
  O          -0.44435035839592     -0.85537179239313      6.48793783231243
  O          -0.55420699489746      0.97875243982775      7.60604926470168
