24
Coordinates from ORCA-job P E -41.166263298670
  C          -1.41270593464086      0.34556748358619     -2.37401809220877
  C          -0.22003112792629     -1.72862911842089     -1.03721409500753
  C          -1.62578584725787     -1.90563231872029     -1.50976934433223
  C          -2.20947694358142     -0.90726413302702     -2.15175307100815
  C          -0.74999260807005      0.78219872874482     -1.05470768960786
  C          -0.09029684437473     -0.37806844436652     -0.29292981581137
  H          -2.13465052675755     -2.83432298989508     -1.31082938844161
  H          -3.22405343424240     -0.96360115635346     -2.51290921581972
  C          -2.26688637971690      1.44767045752644     -2.96779250257262
  H           0.08311711111617     -2.54669197010820     -0.38564402776763
  H          -0.61207386272362      0.13283454318854     -3.09886618585875
  H           0.45314950642707     -1.71624228042661     -1.90110716217183
  H          -1.50463165319421      1.24491899713962     -0.41526461755873
  H          -0.56596477441353     -0.49065917571003      0.68476582504267
  H           0.02006312788624      1.52782741890429     -1.27168284093724
  C           1.40067630045741     -0.13047814160447     -0.08402457718775
  Br         -3.79392626651686      1.87097707327264     -1.82533037843816
  Br         -1.25075807222169      3.09332020695225     -3.25108147242314
  Br         -2.97031384376879      0.89365031813913     -4.71333600862924
  O           2.02024325047686      0.65814338217701     -0.74964974866667
  C           2.05101364281923     -0.97354216306433      0.98143798570022
  H           1.33832773523943     -1.58841311803262      1.52093280387838
  H           2.56684409150438     -0.31595141066441      1.67867550141232
  H           2.80841335347996     -1.60595218923700      0.52132811841540
