24
Coordinates from ORCA-job R E -41.077490859980
  C          -1.29638061142836     -0.25853617537980     -2.89499225825945
  C           0.16126882927364     -2.75072610779583     -2.08610408790030
  C          -1.08361316517414     -2.42944649861873     -1.75179795600247
  C          -1.70175696530735     -1.13745355293987     -1.97861706473664
  C          -0.64026653301177      2.14585781466061      0.44477990418405
  C          -0.23632649517691      0.91865751488298      0.74697933584577
  H          -1.71050709217338     -3.15019701966203     -1.24276704312524
  H          -2.55662084027813     -0.91011090507545     -1.35344595591996
  C          -1.91232675561360      1.04791648461692     -3.16579929227015
  H           0.56275119356621     -3.72806388263186     -1.88035249766549
  H          -0.46653313488220     -0.48749315660407     -3.55003407907075
  H           0.82976366286434     -2.04435587801265     -2.54720833915222
  H          -1.35824181421943      2.68472397829912      1.03961969700795
  H          -0.59881025879710      0.40123560002860      1.62397174578932
  H          -0.23693731767008      2.65525936774858     -0.41574106087104
  C           0.75554013108477      0.20037027787336     -0.07964449170781
  Br         -3.16350862973750      1.65745910207288     -1.81510258580826
  Br         -0.55162360645135      2.43310668911064     -3.38298907309067
  Br         -2.92022313922932      0.94328810398774     -4.88483827746489
  O           0.96633795113240      0.47548962262764     -1.23980967910037
  C           1.47503645044972     -0.91250131866278      0.63859775351175
  H           0.77478267185596     -1.72447033498302      0.82827377440692
  H           1.85037667058439     -0.55823575908232      1.59605390764187
  H           2.29665879833917     -1.28481396646064      0.03316762375807
