19
Coordinates from ORCA-job NEB E -34.687092071320
  C          -0.29446322981693      0.40677947350991     -0.04485034684716
  C           0.03080063675039      0.39686618187768      1.42721708150944
  O           0.86563853047541      0.47510748251661     -0.84230091399296
  H          -0.97106176071194      1.23342209014057     -0.31093600273256
  C           0.66070396722466      1.42024187913898      2.08508208713128
  C          -0.60160938405102     -1.74049429518149     -1.40340116091791
  C          -1.02673347899392     -0.97265744115074     -0.22660630785438
  C          -0.71832660580392     -1.71667843047849      1.09011983339086
  O          -0.21880367273994     -0.78468580543947      2.02335047634932
  F          -1.40668345602549     -1.71933055120715     -2.47897259427341
  H           0.41536070030375     -2.00520996443160     -1.62422870386843
  H          -2.09860888682131     -0.77450331023151     -0.30642383499164
  H           0.04369513459670     -2.49122110724635      0.93555904246685
  H          -1.60999377431296     -2.18083822771663      1.51723109631790
  C           1.35536111236981      1.77743213761922     -1.06241868136311
  H           2.18529444705489      1.66877382240014     -1.75732974332817
  H           1.71046248664946      2.23594176263685     -0.13472282552939
  H           0.58423600268293      2.41677768197369     -1.50734636156600
  N           1.09473123116943      2.35427662126974      2.62097786009949
