19
Coordinates from ORCA-job NEB_reactant E -34.747614627490
  C           1.17863497713507     -0.23885042176570     -0.03823034138572
  C           1.09325673906011     -1.20041667015159      0.90076367889367
  O           0.57004487772261     -0.26004692306753     -1.25427473143712
  H           1.78871771409559      0.62861295039240      0.18510537373476
  C           1.80206733976593     -0.95492017627304      2.10564576551981
  C           1.06123922023785     -4.64937112422487     -1.48526479889952
  C           0.87118384521338     -3.36761796695811     -1.24246394424000
  C          -0.16497139653552     -2.86665621398710     -0.28228484000696
  O           0.40721797178723     -2.38131069411062      0.91956669998991
  F           1.99779751767513     -5.07442815263832     -2.34492714606192
  H           0.50231851501897     -5.46907304824191     -1.05689458946103
  H           1.49441655193150     -2.62905584877668     -1.72395760070726
  H          -0.81096831635744     -3.68591985287924      0.04276372919623
  H          -0.76928983636917     -2.08850844059566     -0.76045426192439
  C           0.93316224039801      0.78284503854335     -2.13042013122231
  H           0.34442661449321      0.63863906257570     -3.03424954236026
  H           1.99841415972111      0.74035730335987     -2.37809052787758
  H           0.70372053173383      1.76080682676808     -1.69661101802818
  N           2.37791073327260     -0.73738564796904      3.07257822627789
