17
Coordinates from ORCA-job NEB_product E -40.465362361050
  C           1.64830454495015     -0.88017305131048     -1.19048340371241
  C           0.82373766521881     -1.12241411003539      0.04804274884865
  C           1.44024910636660      0.54477723839752     -1.69183091714449
  H           2.71106579660394     -0.98089058926389     -0.92466912324454
  Br          1.47634553380444     -2.65502408725722      1.07432660022830
  C           1.38490176003028     -2.02210819302829     -2.22001207089983
  C           0.11505110718059     -1.89291233563037     -3.00399248576786
  C          -1.02054261024102     -2.45020319749242     -2.62756481141539
  O          -0.11648962786539     -0.52524776318346      0.43351860009177
  F           2.46129510439461     -2.06522932338592     -3.07206258713635
  H           1.40589366818937     -2.97347253697043     -1.67002591049184
  H           0.19979417322500     -1.33537695460777     -3.92581805130195
  H          -1.10499324868846     -3.02386248428959     -1.71869325802814
  H          -1.91687804932043     -2.33913964143225     -3.21012620537199
  Br          2.09871183885663      1.77316748686242     -0.29712228639986
  Br          2.47677009512930      0.89106771965009     -3.30174888106320
  Br         -0.40511685783444      1.02714182297744     -2.05623795719089
