17
Coordinates from ORCA-job NEB_reactant E -40.459778425210
  C           1.58686908279914      0.03932368021935      0.12295481797694
  C           0.93463819545516     -1.05514738763683     -0.29643511700215
  C           1.97296921295381      1.07735404682910     -0.84920003748343
  H           1.83981486260444      0.17446268521857      1.16048186478776
  Br          0.44015291121316     -2.39759395354326      0.96035754671541
  C           0.22001906870667     -2.93924390919724     -4.43483422190089
  C          -0.29324982744440     -2.14161824929446     -3.51737368048323
  C          -0.07392563089286     -2.34779349661520     -2.05511141258278
  O           0.63513039886207     -1.21033382531788     -1.57491451053362
  F           0.00644936606974     -2.74243805956563     -5.73551415405116
  H           0.82311291399828     -3.81779032983568     -4.24974357637690
  H          -0.87262431075785     -1.27669293611887     -3.80280263135453
  H           0.51126633681028     -3.25617800948250     -1.86948912082514
  H          -1.03695782311636     -2.42227678403865     -1.53273987217067
  Br          2.87713441941335      2.55700289039056      0.02015627306504
  Br          3.18092193459601      0.35453596244335     -2.24334302357204
  Br          0.40397888872938      1.80072767554528     -1.80514914420861
