14
Coordinates from ORCA-job NEB E -26.279288790770
  C           1.02668695290517      1.11048089364854      0.04524771544434
  C           0.73421234846701      0.48440393671681      1.23834012813285
  H           1.83560960366536      0.69963702133169     -0.53397348088709
  H           0.92115010552794      2.18328844817620      0.00406456099800
  F           0.02271314956509      1.23013087036528      2.14370659520502
  C          -0.44603715901382      0.28628002491199     -1.14328096128665
  C          -1.07245352697693     -0.66774030520168     -0.36060464803669
  C          -0.25304262123127     -1.63422344474708      0.25267114422675
  O           0.68201721412795     -0.75856752136536      1.41722346632776
  I          -1.59325531366615      1.89645019371863     -1.90674024575879
  H           0.29154710215462     -0.02686874618062     -1.86553844841103
  H          -2.00246403527401     -0.41201479688453      0.12951690253677
  H           0.57372252106505     -2.03196210530845     -0.32430927269974
  H          -0.72040634131601     -2.35929446918142      0.90367654420851
