14
Coordinates from ORCA-job NEB_product E -26.342945015770
  C           1.04844996283109     -0.55484799709782     -1.40461078230259
  C           1.78666480166585     -1.21473519172609     -0.28407582034605
  H           1.78043608425671      0.00926544536603     -1.99240057439044
  H           0.35098793444427      0.17293120586423     -0.97795963900546
  F           2.31503160976861     -0.27050204435067      0.54615736302260
  C           0.32279215955800     -1.58809293434327     -2.25358384241984
  C          -0.77785318192251     -2.25892713534563     -1.51652841531084
  C          -0.93462469581632     -3.56968115871069     -1.47361367163234
  O           1.96492733499825     -2.35626866920703     -0.05412026360728
  I          -0.50955312812621     -0.57716164118808     -4.01477408190840
  H           1.02418169239580     -2.31871855042169     -2.65575536863320
  H          -1.47138108080885     -1.59938795283941     -1.01082889936140
  H          -0.25656318125325     -4.23911588646037     -1.97612306198754
  H          -1.73989631199143     -4.02425748953951     -0.92418294211723
