14
Coordinates from ORCA-job NEB_reactant E -26.316130796430
  C           2.00744124593328     -0.06559783263194     -0.07445558408175
  C           1.15936132049892     -1.06411977746081     -0.23580909641384
  H           2.89239651565392     -0.00727194347307     -0.67480008739835
  H           1.82853401680616      0.68396780922036      0.67027016549525
  F           0.03378201686561     -1.13593486534554      0.51303776499263
  C          -1.07808204034187     -2.47569060560705     -3.52375846183931
  C          -0.77364703110466     -2.10709024101574     -2.29586396143441
  C           0.19054422403150     -2.87110707545824     -1.43499121043681
  O           1.32472139816443     -2.08637154103503     -1.08601596377372
  I          -2.43103675311048     -1.42344597886478     -4.73759429040939
  H          -0.67290744242861     -3.35343370289922     -3.99849233840174
  H          -1.19529770709918     -1.21619196982813     -1.85151510993018
  H           0.60250904187184     -3.72894635042024     -1.96997907904167
  H          -0.32341880574085     -3.22056592518056     -0.52953274732672
