23
Coordinates from ORCA-job NEB_reactant E -56.747509816530
  C           1.38061028005066     -0.56207296377981      0.25150751924824
  C           2.14118514981940     -0.91904147710303      1.29605097929762
  C           1.87786402444540     -0.15835519366317     -1.08600573807565
  H           0.30573954937790     -0.57132992158609      0.33285980094896
  C           3.65210953167812     -0.92607068769040      1.31238421469445
  C          -0.83425984892233     -1.27883067923225      4.96743842560654
  C           0.06719626306637     -1.78757393560155      4.14295522932609
  C           0.27716638906509     -1.30502104699438      2.74321559082676
  O           1.67222715521097     -1.30537381046977      2.49483889894452
  C          -1.10259431805694     -1.74913070620967      6.35113264161195
  H          -1.47344392626547     -0.46010230690212      4.66629222561754
  H           0.71388142546593     -2.59844680005065      4.44346554247046
  H          -0.13749580200941     -0.29960215019459      2.60397046073133
  H          -0.22095281453185     -1.99609115456868      2.04594008109671
  Cl          2.72290159368433     -1.52260662861634     -1.90396180830667
  Cl          0.51022715371470      0.30235349435624     -2.12153872757054
  Cl          3.00685380570388      1.22349607661911     -1.02389646855803
  F           4.11946129145851      0.29165034422901      1.73923664438366
  H           4.07539123829812     -1.10873890525655      0.32280066701539
  H           4.00229777825400     -1.66862170999745      2.03597028736680
  Cl         -0.90150168053746     -0.38140004117482      7.48504429184736
  Cl         -2.80030197285801     -2.31141340670796      6.45407705110263
  Cl         -0.05136226611188     -3.06737638940507      6.87652219037388
