23
Coordinates from ORCA-job NEB_product E -56.741076987150
  C           1.27675592704724     -0.89681781379814      2.04910832879076
  C           2.47594632070295     -0.33736783663195      2.84882925449245
  C           1.55936192665661     -1.83980620737820      0.87893417220258
  H           0.85292652394537      0.00227902850638      1.57576243747410
  C           3.91304862541748     -0.51510703461186      2.35976575666131
  C           0.18894578283972     -1.30885303633362      3.08787806475108
  C          -1.21689223341846     -1.27011734848974      2.54104375140246
  C          -1.83870834464147     -0.14091310806084      2.25772088473679
  O           2.25803216056517      0.34737811720387      3.81017141692164
  C           0.44890193459191     -2.60579547960339      3.85443741399825
  H           0.26640365705241     -0.51067272804618      3.84112408129683
  H          -1.71200848125835     -2.21876853487356      2.40779384195207
  H          -1.37316597398161      0.82182415443870      2.39410459365524
  H          -2.84264739179123     -0.13546105356991      1.87354393735005
  Cl          2.52534639913365     -3.27762216697025      1.26616866686607
  Cl          0.03208920311653     -2.39661835138111      0.14837850873040
  Cl          2.42471787207938     -0.93133384065586     -0.40434933238247
  F           4.18864797895602      0.49602448464445      1.47357634229311
  H           4.10296282931445     -1.46139954540647      1.85278429099698
  H           4.58600735891421     -0.38136560602244      3.21341556673274
  Cl         -0.57336429244962     -2.57671414621688      5.32120068191536
  Cl          0.03632533358775     -4.08108446490668      2.96394681798204
  Cl          2.14826688361988     -2.71058748183631      4.37906052118016
