18
Coordinates from ORCA-job NEB_product E -26.008096128980
  C           2.99053708127737      1.09903680463968      1.95780072486207
  C           1.52234272857672      1.05848223647625      1.65462542625382
  H           3.53206992851905      0.86559815193036      1.03691881278806
  H           3.24725738052275      2.12610450047943      2.23532782593047
  H           1.24139366267540      1.71073158582569      0.80171391983347
  C           3.38718193263902      0.14750622371759      3.10270980747454
  C           3.33825782123116     -1.28055580341762      2.63013929924515
  C           2.68484758405425     -2.23684236276321      3.26058183138963
  O           0.69684118387938      0.41859379562180      2.23929903938830
  O           4.62733986339542      0.51960141279050      3.68758607416832
  H           2.67116246277763      0.27960516983389      3.92144113702395
  H           3.87583627830407     -1.49249620249589      1.71430550085737
  H           2.13645888657734     -2.04232772836620      4.16643206520349
  H           2.66102570767126     -3.24836944188906      2.89150345013033
  C           5.78615364549206      0.24640116504696      2.93695135011482
  H           6.61043712684786      0.67630796679977      3.50374841891900
  H           5.75747052295452      0.71061460826691      1.94518996728425
  H           5.95358620260473     -0.83019208249686      2.82682534913295
