18
Coordinates from ORCA-job NEB_reactant E -26.011777253940
  C           1.99814593447139      0.17331071307736      0.17134501191066
  C           1.30763629493274      0.61954448963865      1.20926309233794
  H           2.70273482458473     -0.63684062512962      0.22549105484706
  H           1.86035393369410      0.62253193837987     -0.79388556358373
  H           0.60757826985165      1.43947930236521      1.10805468494468
  C           4.18029677737952     -0.44265752813010      4.22503958471285
  C           3.58170840164615     -0.43705165300748      3.04053241281877
  C           2.16031866034436     -0.87750567193595      2.85939247450232
  O           1.30310067502584      0.19432307356942      2.49186624690331
  O           5.43996172742209     -0.06519429722084      4.53505043133385
  H           3.67624668237101     -0.79968420717506      5.11368270797345
  H           4.07448986005782     -0.06792354333908      2.15510863744953
  H           1.75711648221737     -1.24780185420950      3.80531034458872
  H           2.09308654895863     -1.67577869093297      2.10775028911641
  C           6.24277877948808      0.44374194791417      3.49544858289577
  H           7.19769103575520      0.70033114588027      3.95058338115972
  H           5.79607366981188      1.33876854124451      3.05170640364599
  H           6.39998144198744     -0.30569308098885      2.71336022244269
