24
Coordinates from ORCA-job NEB E -53.432047543000
  C          -0.13180486782313     -0.72982237240928      0.16333681185346
  C          -1.27132750405985     -0.55180487865142     -0.68933607602725
  O          -0.33505224067468     -0.63884243355498      1.50829631151781
  H           0.55517459112485     -1.52562862365959     -0.13413993555242
  C          -1.15120084062967     -1.07960209281744     -2.11455610687316
  C           0.76231709977078      0.84399530942716     -0.26632339371135
  C          -0.17908752249833      1.83705143349913      0.08217475364346
  C          -1.35432695934869      1.93835489959733     -0.68329106893782
  O          -2.07836196533937      0.41915477840686     -0.47668224562596
  C           2.06552978474948      0.82396504079998      0.50650058708703
  H           0.96369709459329      0.69414637321716     -1.32365617099607
  H          -0.19461360646992      2.17083147808859      1.10933049442321
  H          -1.25931945633216      1.92813063851407     -1.76355926326724
  H          -2.12961582997940      2.59979009158483     -0.32274592292097
  C           0.30508583670987     -1.62292149974628      2.29833972690493
  H           0.10119667365214     -1.34683144979340      3.33016114683506
  H           1.38536190007278     -1.63788575947229      2.13377681521013
  H          -0.10605811615945     -2.61601008759243      2.09360805352806
  F          -2.34178185663450     -1.25256397382171     -2.68681822066271
  F          -0.45788408301723     -0.24976996872493     -2.93962889157228
  F          -0.50696504062332     -2.25570568599857     -2.16640275675789
  F           1.89676264564728      0.99801909030215      1.83282770882960
  F           2.71310907649970     -0.35988008435878      0.35742361292289
  H           2.74916518676954      1.61382977716384      0.15136403014949
