24
Coordinates from ORCA-job NEB_product E -53.458554277900
  C           2.62027167940495      1.15002886754313     -0.12819445582402
  C           1.27741577568243      0.90045938237944     -0.80258939534297
  O           2.52423169114814      1.00051180538438      1.25603138109537
  H           3.37203969198823      0.46176621776136     -0.55376718778806
  C           1.39219829106972      0.38625321955996     -2.27348745708667
  C           3.04060551757098      2.61425167883705     -0.44229342867419
  C           2.15113916595661      3.58139811313120      0.28480173735935
  C           1.38826298872606      4.46549014891029     -0.32794246647144
  O           0.20540482361333      1.04380681245539     -0.29959226627714
  C           4.50682875604621      2.82944301193866     -0.04671006761728
  H           2.99080603607652      2.78077317004967     -1.52242305754675
  H           2.16656502785596      3.48496139805729      1.35952930178381
  H           1.36227056936531      4.55314285100438     -1.40242380663860
  H           0.75559523649639      5.13911248373977      0.22207385864947
  C           2.45678402518807     -0.33815683548528      1.69203320664161
  H           2.46876351489235     -0.29457027471240      2.77825318564664
  H           3.32138384504314     -0.91134284684012      1.33816722911551
  H           1.53694690776729     -0.82801234564464      1.35616652227207
  F           0.20273457018018      0.20052855229795     -2.83399124240381
  F           2.07668035458099      1.23783567088791     -3.05388276838544
  F           2.04835438012686     -0.78357797119468     -2.30900421944959
  F           4.74117180474995      2.59237926643263      1.25654975959049
  F           5.30838017369618      1.97928116007909     -0.73728528819691
  H           4.83666517277416      3.85683646342754     -0.26871907445143
