26
Coordinates from ORCA-job NEB_product E -44.125488622710
  C           2.53169699794573      1.28199964905015     -0.59875114903722
  C           1.35059031110528      0.79731623464743     -1.38419712793264
  C           2.34930282339893      0.87382694014481      0.87043090992794
  H           3.44474398231893      0.82803613413712     -0.99572504136407
  C           1.73049779179973      0.25376595072862     -2.79816892010603
  C           2.59131313653444      2.82281499836543     -0.88430664254668
  C           1.74083834299621      3.59089856535235      0.08214859346426
  C           0.53060429368478      4.03716276526546     -0.19677347234754
  O           0.20446635789003      0.79921526523998     -1.04071878465119
  C           4.03398529698315      3.32599443784337     -0.88809717074673
  H           2.18734756150664      2.98681445501710     -1.89061947563157
  H           2.18292978841467      3.77958305829916      1.05057393954100
  H           0.06636319163328      3.86528430376929     -1.15389689057277
  H          -0.05229591921297      4.58729061586706      0.52171573839737
  C           3.57284011842973      1.12575666347032      1.74079760259459
  H           2.13033806246224     -0.19715925089429      0.88318791104752
  H           1.47921581734968      1.38912862389985      1.27780740962892
  H           4.46259452570374      0.69334163312193      1.28834600857486
  H           3.42796890250223      0.66363296401275      2.71435382768634
  H           3.74108272343978      2.18701689878700      1.89772631161481
  F           0.67171051066007      0.04478948530701     -3.57588998624972
  F           2.55783345898460      1.07830142800343     -3.46218902033036
  F           2.38108817784381     -0.91661916881586     -2.67457025167427
  H           4.61007816521475      2.81800760626370     -1.65772260492265
  H           4.51484786607722      3.16487187345471      0.07141222564989
  H           4.04221771433332      4.39192786966212     -1.10467394001407
