26
Coordinates from ORCA-job NEB_reactant E -44.123478486430
  C           2.33943123233011      0.43631139257653     -0.20438527250050
  C           1.60589454594508      0.71053589719340     -1.27990283908150
  C           2.23204872102399      1.06544435291717      1.14906501767678
  H           3.09198139305323     -0.33176484643515     -0.30336437822487
  C           1.80713422244658     -0.06407876521669     -2.56829240625438
  C           2.90919314433392      4.25296470454157     -0.69733762185369
  C           2.10875879201197      3.52245711826054     -1.45511272243389
  C           0.79836639958367      2.95454475052863     -1.00288752431048
  O           0.59954448136053      1.61734933361242     -1.45643199102995
  C           4.20465504375578      4.83343792554805     -1.15062333814345
  H           2.62715186480836      4.48154988692114      0.32385158406029
  H           2.37388853929984      3.29195894568778     -2.47822944601452
  H          -0.03119950992665      3.49972749220389     -1.46679421967633
  H           0.69596542551108      3.02395006626343      0.08534314710906
  C           2.91375322424244      0.20998651618035      2.21122848617780
  H           1.17977224263490      1.19815439777281      1.40937918077210
  H           2.70087995245194      2.05407405147849      1.12656666945999
  H           2.45709840646512     -0.77558459584264      2.25715097921361
  H           2.82116127759122      0.67749285806023      3.18846326492274
  H           3.97077129421290      0.09105804076806      1.98551041081735
  F           0.68443967281724     -0.66143489914545     -2.98849131744024
  F           2.20636158311409      0.74136171620278     -3.56980384061141
  F           2.73654248820768     -1.02680337800664     -2.47157674639932
  H           4.41965787543659      4.55149429403950     -2.17761399734081
  H           5.01580654725923      4.48709940505516     -0.51080747668046
  H           4.17314114002915      5.92031333883466     -1.08110360221392
