17
Coordinates from ORCA-job NEB E -30.361225909650
  C           1.13082958625197      0.04124610136540     -0.80543672633513
  C          -0.16654164244206     -0.44261104905286     -0.98820095269212
  F           2.12778494924705     -0.84052868645706     -0.56933041029720
  H           1.49528847727867      0.84936253043149     -1.43346137993727
  C          -1.20576640956738      0.46023380756472     -1.61762937507217
  C           0.93680415310261      0.76402605489596      0.97680296656117
  C           0.52013631202259     -0.36041420190681      1.67480878245787
  C          -0.74148451288175     -0.93768409358564      1.31929746549502
  O          -0.60896457385348     -1.39394192849573     -0.20087889480463
  H           1.92970063260077      1.14510715262365      1.17132944922411
  H           0.21355985702577      1.53530010651055      0.74391837090699
  H           1.26765011157982     -1.01110384211502      2.10343070952095
  H          -1.58304182500831     -0.24660682474777      1.27784686886989
  H          -1.00096500604718     -1.86569063082187      1.81526771769723
  F          -0.63776695503318      1.53724073400375     -2.24395887537077
  H          -1.89335451754804      0.85589242655188     -0.85558909227271
  H          -1.78386863672786     -0.08982765676463     -2.36821662395124
