17
Coordinates from ORCA-job NEB_reactant E -30.389532391100
  C           1.26220942732498      0.30940358388895      0.38877729330577
  C           1.55498207228651      1.60093704477642      0.27486336966618
  F           1.58937249296311     -0.47058033889565      1.44570537179581
  H           0.72641584259882     -0.23665194063489     -0.36861742745346
  C           1.13564963538563      2.37026134134499     -0.95525854749565
  C           3.27505108372788      3.23763631416840      4.37701885786819
  C           3.38518637525988      3.01879723327571      3.08130461888637
  C           2.69296035592439      1.90826949761670      2.35535984069871
  O           2.21249057848404      2.43027908690503      1.12004899031484
  H           3.80922963907499      4.03442716295951      4.86432316861697
  H           2.65595995387003      2.61987589729979      5.00641660500962
  H           4.00388427354440      3.64454422123543      2.45410867983387
  H           1.86531148623296      1.50762069028284      2.95075965961446
  H           3.40708752752656      1.09575096277139      2.15879432375128
  F           0.45944293162376      1.58810497833381     -1.84649929172296
  H           2.01764579256967      2.76839754816734     -1.46942252597886
  H           0.47422053160238      3.19712671650422     -0.67318298671115
