17
Coordinates from ORCA-job NEB_product E -30.395030222210
  C           2.03097054700205      1.62190063807321      0.96266702274619
  C           0.78003766123220      2.31603784157675      0.39838066141290
  F           1.70482883782969      0.30687928207298      1.21969759152568
  H           2.84568356730041      1.59259899353177      0.22802883846437
  C           0.98159084086123      2.84909994169811     -1.01027649272977
  C           2.46312131793580      2.30974292927568      2.26245296543742
  C           3.72404277916260      1.70509859041927      2.79896454081417
  C           3.80023097863848      1.05374932177650      3.94298145120108
  O          -0.23685250377288      2.41982784627380      1.01704769276010
  H           2.61469382348502      3.37088675647826      2.04753712042451
  H           1.65113496247439      2.20791204341867      2.98395741749282
  H           4.59678780506637      1.82115522688242      2.16912900469041
  H           2.93951871270190      0.92235020418830      4.57716308704101
  H           4.72360963818825      0.62652526037783      4.29356433688925
  F          -0.08263095570129      3.58981747582475     -1.42790408317532
  H           1.09444763936437      2.00708657226013     -1.70504492451148
  H           1.87038434823142      3.48993107587157     -1.05624623048334
