18
Coordinates from ORCA-job NEB_reactant E -41.220513572120
  C           1.88131254263566     -0.47427925661746     -0.04382834682735
  C           1.31792840193236     -1.41358953189134      0.73172870625561
  C           1.76049850511076     -0.35551952378627     -1.43743085600705
  H           2.49553706328207      0.29631195081913      0.40041097763138
  C           1.48631824811024     -1.45470215875976      2.22340067589207
  C           2.44262248459690     -3.73092537299565     -1.26869159166668
  C           1.35726536751911     -3.17504460022038     -1.78251826784240
  C           0.19790262896674     -2.69646234940253     -0.95726937532128
  O           0.52250723615521     -2.44346868287711      0.39859708183133
  Cl          3.75213842723012     -4.26259718465392     -2.23565144557521
  H           2.59256350677949     -3.89810722900069     -0.21219147928214
  H           1.25022482532044     -3.03648553794656     -2.84693426772804
  H          -0.57183312291154     -3.47437750707497     -0.90184334322251
  H          -0.24416419763618     -1.80256330252967     -1.41141763936646
  N           1.69747812986039     -0.18043953700842     -2.56962669582519
  Br          2.59965484422756     -0.07362239026551      2.97755706729446
  Br         -0.29299058848215     -1.33024655666621      3.04509954846973
  Br          2.25623569730281     -3.19238122912266      2.70800925128974
