18
Coordinates from ORCA-job NEB_product E -41.214041191880
  C           1.90460505262206     -1.43889116216743     -0.25126803729633
  C           2.76699143504527     -1.62075659643500      0.98261126146910
  C           2.65242060827624     -0.64786334227874     -1.20938615639220
  H           0.97097717033633     -0.91136991014668     -0.02020762380017
  C           2.09667718056355     -1.22600299720249      2.29762263474257
  C           1.53337407343878     -2.81735544336198     -0.85798717705313
  C           0.64538819093028     -2.64866518517636     -2.04624564937807
  C          -0.55446452881326     -3.19285075135964     -2.12916774098890
  O           3.88720218983524     -2.02797410881892      0.98497591775654
  Cl          3.03461106247799     -3.67936949557101     -1.35330511465762
  H           1.04973319371550     -3.43600473767649     -0.09706557667877
  H           1.05863680346310     -2.05805480199384     -2.85162043532379
  H          -0.96742241018378     -3.78660135148616     -1.33025040247675
  H          -1.16979268932077     -3.06453059029636     -3.00186943138603
  N           3.23188968836780     -0.00745561305767     -1.95372409924071
  Br          1.77759105780180      0.70703547108369      2.23462813406028
  Br          0.39718442688801     -2.15260171172438      2.50240527809292
  Br          3.25229749455587     -1.65568767233052      3.78205421855109
