20
Coordinates from ORCA-job R E -37.196230347540
  C          -1.18846594727727      0.05865733411782     -2.89120426881078
  C          -0.71198596354364     -2.66519952500972     -1.65142073755857
  C          -1.88010061063360     -2.04071733050815     -1.76889210047295
  C          -2.11573679942111     -0.73876209012731     -2.35581444805369
  C          -0.90825627033164      0.82957856683742      0.37475003226662
  C           0.22628225317772      0.15823333642860      0.32377414243666
  H          -2.77064112151685     -2.53006457445363     -1.39404640087602
  H          -3.14564202358574     -0.39796429022890     -2.35119105997459
  O          -1.42060137618192      1.27549257384277     -3.42637343041584
  H          -0.64451311729457     -3.63908614843702     -1.19841489211049
  H          -0.14245905370552     -0.19760089174415     -2.94396258467518
  H           0.21014159692596     -2.23979005607586     -2.00524473265943
  H          -1.82918261173693      0.32739349003363      0.61128468411926
  H           0.26086749141049     -0.90563508696254      0.50886207228059
  H          -0.96039801265471      1.88783903400992      0.18632813345980
  C           1.55882796026369      0.74096848205266      0.01414215128062
  H          -2.36319390031007      1.48463919896541     -3.37900103170568
  Cl          1.51003332806259      2.45005348607377     -0.43104129277352
  Cl          2.62089061393183      0.56319689663038      1.44880571517992
  Cl          2.30755356442131     -0.16405240544510     -1.32938995093671
