20
Coordinates from ORCA-job TS E -37.184169415690
  C          -0.94623724991911      0.74220232032076     -1.32381443260806
  C           0.41632308604983     -1.62484957059446     -0.41193540343552
  C          -0.92369245966206     -1.58563359916647     -0.61940689249439
  C          -1.59155295556124     -0.43831540544918     -1.08763954771086
  C          -0.28907340502402      1.03747792678067      0.81590468615358
  C           0.55530239833973      0.03775203297272      1.20075560524563
  H          -1.54016780436982     -2.39559694862696     -0.25438505534759
  H          -2.67530143001293     -0.43851021500953     -1.07113662172402
  O          -1.58150919276560      1.88609673431885     -1.65558753198535
  H           0.86109175973837     -2.49310163105220      0.04390686500582
  H           0.09898010303527      0.79235306563537     -1.58187821706745
  H           1.08799712805653     -0.99232700073755     -0.96007977751659
  H          -1.30626019624770      1.02940006225962      1.16212651889470
  H           0.22477019008300     -0.73640160131621      1.87380672994915
  H           0.09692612235579      1.97878803110007      0.46849123154559
  C           2.02805949855038      0.25380661690851      1.19442613432996
  H          -2.53437189692974      1.79315108829580     -1.52122948857874
  Cl          2.60991627070050      1.04958412807073     -0.28189856564500
  Cl          2.45883113186458      1.34489584529135      2.57628957478815
  Cl          2.94996890171824     -1.24077188000189      1.43328418820099
