23
Coordinates from ORCA-job NEB_product E -45.265234688070
  C           1.28034436884547      0.99807016040278      0.42431413356622
  C           1.58199994555792      0.89443623236611     -1.05600412313336
  O           2.47706974943004      0.75898216470058      1.11095249116803
  H           0.51225229929830      0.26565224370187      0.71767469485890
  C           0.45910394576896      0.23120970601398     -1.91760831591120
  C           0.72444358342984      2.44277800148781      0.67329523385512
  C          -0.03590847333875      2.93170403265783     -0.53525603545012
  C           0.44309555174638      3.79077249864500     -1.41629380840023
  O           2.58684847199462      1.24451543089077     -1.59380550974484
  N          -0.06388117684546      2.43843775572440      1.89384239349059
  H           1.60460879054640      3.07468073789321      0.83396322578955
  H          -1.04383256495421      2.54622507693066     -0.63045001436022
  H           1.44121306361658      4.18782302643463     -1.33375851816239
  H          -0.13502630441658      4.11524128460502     -2.26410581827469
  C           2.31071321867110      0.52380468009329      2.49372475167165
  H           1.84440393691804      1.37705426723211      2.99124193590188
  H           3.31183081288641      0.36011316186068      2.88559521692676
  H           1.69824393737486     -0.36890052070970      2.66519393056898
  F          -0.72235803741046      0.13117781226339     -1.28769052340722
  F           0.23974036799250      0.90288147770110     -3.04851205146159
  F           0.81644340945082     -1.01558970709107     -2.24911163067105
  H          -0.93744724220170      1.94141030622895      1.74717965380717
  H          -0.29000165436110      3.38912016996659      2.16471868737207
