23
Coordinates from ORCA-job NEB_reactant E -45.281370026550
  C           1.47285279833261     -0.47683443362705      0.16609915667043
  C           1.32467747457934      0.66122119088238     -0.52715235170210
  O           1.35186446473784     -0.53115484542556      1.50478115639717
  H           1.72282480947062     -1.39577649776758     -0.35092403927075
  C           1.42520983601144      0.62243722840459     -2.03143320613311
  C           0.18810670610493      5.09318783363095      0.12444937673666
  C          -0.11585658448556      3.84247787780414      0.46515065763306
  C           0.05590241474603      2.68313157704988     -0.45485970554245
  O           1.12458193550281      1.87019736712544      0.06512883483505
  N          -0.03117345649276      6.20261218936578      0.91132731462254
  H           0.55325194228628      5.31927263817902     -0.86856217803236
  H          -0.46904088108257      3.61001781297236      1.45818931629979
  H           0.30150741432722      3.03302151750580     -1.46433413278402
  H          -0.85947747311642      2.07733757374682     -0.49857069426819
  C           1.70794176450449     -1.75958112841274      2.10062988839035
  H           1.49229233309066     -1.65515476328699      3.16197117842794
  H           2.77305574648269     -1.97104978033889      1.96514788140887
  H           1.12150741455935     -2.58687168828368      1.68856881467577
  F           0.21974227381806      0.62417189191186     -2.64482656425358
  F           2.09491919755396      1.66734485116031     -2.53566831884085
  F           2.04971501450163     -0.48068244057560     -2.47667441354838
  H          -0.18313840334785      6.00904004539038      1.88975118329514
  H           0.56633325791522      6.99473398258834      0.73991084498300
