23
Coordinates from ORCA-job NEB E -40.024009767680
  C           0.27722315394501     -0.69133777470616      0.40858226384156
  C          -1.07057878272405     -1.15252288702281     -0.07573773854588
  I           0.69981468734755     -1.46813887329537      2.39599625652630
  H           1.02345677643790     -1.20806573248545     -0.20203555381454
  C          -1.37993193965930     -2.65880381118534      0.13386604521693
  C           0.48773161509527      0.82332939482272      0.28775815756874
  C          -0.70680328514934      1.63904977308905      0.72589222509641
  C          -1.45047136657156      1.44925515573351      1.79898267700291
  O          -1.85543403917481     -0.44800391626180     -0.63964678117620
  C           0.86326990856269      1.17426648494604     -1.16338422326944
  H           1.33979656325150      1.09894183734070      0.92361821373609
  H          -0.93088780134431      2.47422663962195      0.07703603547541
  H          -2.27031999105972      2.10933073957509      2.02280023171424
  H          -1.30115048476361      0.64736797734963      2.50114657399400
  F          -2.16476540914037     -2.81484232727485      1.22263681555310
  F          -2.07329138161759     -3.12090920454536     -0.92582244896594
  H          -0.48669900093123     -3.29035385884581      0.25875527703666
  C           2.24679897988069      0.68584399754459     -1.57943255401609
  H           0.84896094091771      2.26205381873374     -1.25245923088937
  H           0.10395933123242      0.77838139138489     -1.84028219315340
  H           3.00235035889625      1.03324993729844     -0.87734187938877
  H           2.49231649119076      1.07712216065208     -2.56346989281665
  H           2.30465467537811     -0.39944092246952     -1.63745827672606
