23
Coordinates from ORCA-job NEB_reactant E -40.022886731390
  C           1.55261558047196      0.04962482846483      0.03520329852882
  C           1.29953200862388      0.42333083865340     -1.21821670762404
  I           3.13050951315998      0.56060939898220      1.32815530109833
  H           0.87059755631090     -0.62332532372171      0.52266944558910
  C           0.04092852728631     -0.14547272972279     -1.86768280997939
  C           3.84198437641406      3.92867642267775     -3.05088645462906
  C           3.52219288801152      2.64609690118758     -3.04078141493233
  C           3.12862470388937      1.88873175616613     -1.81094866632432
  O           1.90822345227995      1.21845488137810     -2.10307332290651
  C           4.26569904138266      4.68851285176610     -4.26473101934730
  H           3.83686566248251      4.49453580771443     -2.12751080182669
  H           3.51627150955612      2.06231562835534     -3.94995550328804
  H           2.99678495967273      2.57146767357383     -0.96515762667752
  H           3.90321794984604      1.14939963261144     -1.56639294717949
  F          -0.79149612433141      0.85033530748569     -2.24177066639993
  F           0.35672124768701     -0.82722014612076     -2.99097318919842
  H          -0.51783196377466     -0.82371622998520     -1.20602884116023
  C           5.67620445197380      5.25284778567450     -4.09489737739145
  H           3.56939647515471      5.51638853992169     -4.42443797006957
  H           4.22896045497546      4.03960236811091     -5.14087522141843
  H           5.72158350310800      5.91555304167378     -3.23370679683173
  H           5.96816623309036      5.81494766353495     -4.97840652511658
  H           6.39014799272875      4.44620310161780     -3.94589418291520
