23
Coordinates from ORCA-job NEB_product E -40.036532133620
  C           3.04934603504981      1.63105703746210     -1.93023969321891
  C           1.78709411951715      1.17410382523484     -2.58861967533431
  I           2.66631448129586      1.04095798309036      0.13442265623908
  H           3.89315901211523      1.01333319375161     -2.23673026026409
  C           1.85313552100542     -0.27178059945393     -3.14181357769224
  C           3.38653230311363      3.11759685809342     -2.04607671989100
  C           2.35729787405646      3.99336753724495     -1.39093106438116
  C           2.60960205985001      4.75136199880909     -0.34063839038426
  O           0.78442354168384      1.81377523835554     -2.74513889672433
  C           3.53464443080035      3.51010598747740     -3.52756968166076
  H           4.35004423997783      3.27075056362589     -1.54459966456895
  H           1.37399750357632      3.97114094033817     -1.83743835014303
  H           1.85145939500597      5.36975120202414      0.10720602968017
  H           3.58423583204244      4.78336443940805      0.11990390260125
  F           2.42964870681379     -0.20775325750463     -4.36940672259978
  F           2.63740216500861     -1.08080474493241     -2.39988164634345
  H           0.85768216642958     -0.72521658269372     -3.24543373680042
  C           4.65164672471033      2.76721237259978     -4.25272610798660
  H           3.74220540205447      4.58219553981660     -3.55522841938073
  H           2.58645169451002      3.34563082351609     -4.04328359419766
  H           5.58293797866517      2.82948272414091     -3.69287946773642
  H           4.81385674234404      3.21388627721303     -5.23047375093084
  H           4.40458207037368      1.71978064238271     -4.40772316828157
