19
Coordinates from ORCA-job NEB E -29.590029027420
  C           1.13995739306343      0.51248012626338     -0.05332672306668
  C           0.63564823679706      1.20964847526123      1.02248990263313
  C           0.80377848328389      0.94511819098100     -1.44961654398118
  H           2.11988318784048      0.06725744252093      0.07550884277220
  F           1.29734660966064      0.96368274210558      2.22270982622880
  C          -0.13888960775646     -1.18397561925945      0.23836196920097
  C          -1.36515372643925     -0.51987626764834      0.22219166837205
  C          -1.70821691448337      0.34612261120035      1.25795511217309
  O          -0.50739271843704      1.69715362288996      1.12503107822978
  N           0.19081544494403     -2.08204078288068     -0.74729716066887
  H           0.30977695039456     -1.41639444847893      1.19637874240636
  H          -1.87256301643533     -0.42428053132666     -0.72778387924852
  H          -1.42911110831534      0.08478047841167      2.26935050571900
  H          -2.62045021838330      0.91586386049654      1.17879970301229
  H           0.83689003889105      0.10612270039264     -2.14306944161582
  H           1.53381224392873      1.68031802789383     -1.78984301172730
  H          -0.18159628978448      1.40215993504337     -1.47682766771826
  H          -0.18476834539829     -1.88619480970638     -1.66309127675157
  H           1.14023335662901     -2.41794575416003     -0.75792164596948
