19
Coordinates from ORCA-job NEB_reactant E -29.613991088280
  C           1.84982004904527     -0.07401264485344      0.01839712145570
  C           1.18840251916071     -1.00563693440002      0.68915844497500
  C           2.09246550473116     -0.13654230458688     -1.45359697277701
  H           2.24166736316994      0.76585201605077      0.56799409119604
  F           1.00642753278544     -0.86533665709198      2.02914346472730
  C          -0.38549523858180     -5.30812811951744      0.39980777970815
  C          -0.72427458249933     -4.03856231256897      0.18250994106285
  C          -0.20247134868295     -2.90432851281386      0.99646903732478
  O           0.67065075090699     -2.12437549524633      0.16952135297609
  N          -0.75615231296557     -6.37390947418150     -0.38763491306773
  H           0.27042854648293     -5.57014892685135      1.21935520603995
  H          -1.36374026409476     -3.77343131491129     -0.64607933077746
  H           0.35103750215358     -3.27537967805536      1.86736194661190
  H          -1.02438142316168     -2.26486676285283      1.34765531185011
  H           1.62005566411017     -1.01970263261361     -1.87256893526789
  H           3.16152656324355     -0.17521390958294     -1.66040543762299
  H           1.69048945178736      0.75114300435169     -1.94093528312851
  H          -1.49385018712404     -6.18804511688690     -1.04956286421086
  H          -0.82440609046698     -7.26997422338773      0.06611003892458
