19
Coordinates from ORCA-job NEB_product E -29.625028561630
  C           1.58921319511586     -2.30688308035163     -0.13595350034424
  C           1.85261114232906     -1.56575520442011      1.13532415439265
  C           1.10485579138624     -1.33393931852013     -1.21759840690963
  H           2.54812927079303     -2.73167092661051     -0.45980376122568
  F           2.71553661399574     -0.52406453731923      0.91727275137514
  C           0.63301140670808     -3.49490305314596      0.12488309068477
  C          -0.80352333456279     -3.04934843523598      0.22681173839832
  C          -1.46253539947631     -2.93060061382411      1.36333458293155
  O           1.45947628249700     -1.74998110154939      2.23156180141533
  N           0.85757213232906     -4.49422273915568     -0.91248630285410
  H           0.93173245124189     -3.94846908954929      1.07683476352644
  H          -1.29507543475136     -2.85568258509994     -0.71926263806466
  H          -0.98724457461573     -3.12054072453721      2.31067736752538
  H          -2.49393088052049     -2.62171996588439      1.39469166122896
  H           0.93105989277076     -1.86934227718058     -2.14699317871876
  H           1.85703876988214     -0.57027590386316     -1.39911425591094
  H           0.18246321553732     -0.84677170538074     -0.90993043555003
  H           0.50968571461956     -4.15998066776563     -1.80576843646783
  H           0.35552374472094     -5.34604807060633     -0.68998099543268
