20
Coordinates from ORCA-job NEB E -44.713581372070
  C          -0.14882450894847      0.81967928561433     -0.41735718910362
  C           0.50251342641278     -0.33773969884323     -0.91599500569380
  C           0.55312866986966      2.11474271615410     -0.14452651435351
  H          -1.06340557592416      1.02056834026307     -0.96986882595767
  C           1.95264488398985     -0.67161467105782     -0.61178848016265
  C          -1.16555258435128      0.11679165824422      1.14071428660486
  C          -1.21141465179206     -1.27456065034304      0.95560975644202
  C          -1.62094225878482     -1.76490648088022     -0.27666302104068
  O          -0.23094089287650     -1.27869091270314     -1.34323724683981
  I          -0.42859986253619      0.76768067940816      3.01702633353717
  H          -2.04277654579011      0.69645626864094      0.88916219747953
  H          -0.54131331991125     -1.88653782577123      1.54491180678588
  H          -2.38564903460754     -1.23583282829906     -0.82895962237819
  H          -1.59416352663318     -2.82897985297943     -0.45356948946927
  Cl          1.11824319533357      2.76138976165256     -1.74060708118007
  Cl         -0.60413480400928      3.30291575866950      0.51171509675379
  Cl          1.95552507906160      2.04952942980875      0.92160110790504
  F           2.09658777525661     -0.93302446702299      0.73169726214230
  H           2.63040880868922      0.14744494276245     -0.86360153701763
  H           2.22866572755154     -1.58531145331791     -1.14626383445372
