20
Coordinates from ORCA-job NEB_reactant E -44.761619048260
  C           1.35703653630818     -0.57432065335431     -0.22401013286464
  C           1.95907893842943     -1.65161685517365      0.29947850310073
  C           2.01392520929150      0.47702804895289     -1.03729172570828
  H           0.29852834979655     -0.42276331233259     -0.08704780816134
  C           3.43384756757292     -1.96362340738887      0.19443370307151
  C          -1.04231294989267     -3.59872111454167      3.28768313114359
  C          -0.42884599599855     -3.68471180049930      2.12377741257441
  C          -0.03894070809187     -2.48494339935588      1.31614040113365
  O           1.34236143815991     -2.60613267307382      1.01594273431889
  I          -1.61874965385449     -5.27726862020088      4.40371421740675
  H          -1.31491549991820     -2.66426689284491      3.74901900241742
  H          -0.15842926505176     -4.63623305515123      1.69099362462977
  H          -0.22797513150538     -1.55814103767701      1.87168804623684
  H          -0.61802588606750     -2.46836400983162      0.38072888104246
  Cl          2.62395001453707     -0.19238399069865     -2.59463848169985
  Cl          0.83852917641311      1.74605801234076     -1.44177925064366
  Cl          3.38827763020575      1.25108061831464     -0.20122500119111
  F           4.10209090126158     -1.41720765317478      1.26132848013885
  H           3.87899015447737     -1.55392359168561     -0.71410237269971
  H           3.57897917392706     -3.04674461262352      0.25296663575371
