20
Coordinates from ORCA-job NEB_product E -44.761728303170
  C           1.33106709725368     -1.48442152660524      0.31732685982153
  C           2.40863961037161     -2.57535505812544      0.20024404052543
  C           1.72653668509693     -0.00807506326843      0.30667682243988
  H           0.73565036720489     -1.62475124188461     -0.59774552333384
  C           3.85758354493479     -2.38555371694326      0.59557352476704
  C           0.38437405587524     -1.82512794644075      1.48513085634382
  C          -0.59466649070387     -2.88127644073610      1.11055062407588
  C          -1.89642108615486     -2.75303729922258      1.29239978408715
  O           2.07665038875331     -3.64035235501402     -0.25057301060732
  I           1.47659499401437     -2.52174275633861      3.24815068012113
  H          -0.12592968583307     -0.92195182252551      1.81963878617154
  H          -0.17096909739008     -3.77785794187784      0.67919664583233
  H          -2.32686230354731     -1.86546913197342      1.72721511528058
  H          -2.58267866569614     -3.53239873957568      1.01237101205019
  Cl          2.98619682985555      0.29056212465775     -0.91242320257842
  Cl          0.26854173013912      0.92216737786768     -0.20932555619682
  Cl          2.21944127606786      0.65745645343460      1.86855192803416
  F           4.14908754873817     -1.27179879943455      1.31324350515473
  H           4.44984950218258     -2.35001862252138     -0.32898161795185
  H           4.17241369883723     -3.25429749347264      1.18627872596284
