14
Coordinates from ORCA-job NEB E -29.662415877210
  C          -0.85310059784186      0.89305062694192     -0.25579175726595
  C          -0.17730715969116      0.49989494154835     -1.45971958277319
  Br          0.12716936791119      2.37540794874866      0.64246849672674
  H          -1.85760746416335      1.27148871386453     -0.43058886884413
  Cl         -1.05820993191099      0.25546606451268     -2.91312742434247
  C          -0.86890662428790     -0.35967084948567      0.71537053665439
  C           0.46461773682101     -0.87252085211457      0.82832860067294
  C           1.47916122296587     -0.59728747938365     -0.21059717999164
  O           1.03461439919016     -0.05265700501542     -1.43508581541598
  I          -1.77046939466764      0.17370982168333      2.71016811180065
  H          -1.63953701798591     -1.01935538804704      0.32354861721659
  H           0.87778450572976     -1.09425076379392      1.79809391451813
  H           1.97579184929160     -1.52578479138639     -0.51820712185594
  H           2.26599910863921      0.05250901192717      0.20513947289987
