14
Coordinates from ORCA-job NEB_product E -29.728988125470
  C           1.96775202173737     -0.34045778275849      1.86008346039275
  C           0.77114867100263      0.41464582054162      2.37703145454585
  Br          1.44023921351030     -0.84001266239629      0.02219834612383
  H           2.84268980766634      0.30084133531816      1.74768605325850
  Cl          0.82579953984098      2.11599303873907      1.95304032969123
  C           2.25528495845044     -1.59438626034034      2.65613528242645
  C           3.32239457096329     -2.43436111775485      2.05538213427011
  C           3.19971902881433     -3.73635046555196      1.86867047604390
  O          -0.14511109978997     -0.05064042757219      2.96612522237156
  I           2.88584195560129     -0.92755444166642      4.64806097940367
  H           1.33824674402725     -2.16143485955158      2.82117541560933
  H           4.22787900832098     -1.91202383405954      1.77582476196312
  H           2.30602012776431     -4.26974192135941      2.14795493479768
  H           3.98749545209045     -4.31671642158778      1.42263114910202
