21
Coordinates from ORCA-job NEB E -40.514569937900
  C          -0.13625246213952     -0.54161958503851      1.22899799448507
  C          -1.51790611237118     -0.84408271758954      1.05986408164008
  N           0.24604892816801      0.76883035134647      1.62490784909418
  H           0.51037186992204     -1.28591679571501      1.68412119961207
  O          -1.92788137558988     -2.10526528816294      1.33906255795073
  C           0.43786253456544     -0.51900576378808     -0.76239768784419
  C          -0.43472819853134      0.47931790376912     -1.22126323075582
  C          -1.79110386707912      0.20814828691415     -1.27972763881621
  O          -2.31764277854349     -0.08122220758258      0.49547311724227
  O           1.77622766808279     -0.44239026520987     -0.72930429927979
  H           0.14756631639614     -1.55632850370342     -0.91048065455053
  H          -0.11842729712543      1.51003872182389     -1.19638585276450
  H          -2.13264635635232     -0.77716961026422     -1.56189120227877
  H          -2.46979063423655      1.01318718172787     -1.50817501797236
  O           1.21611470433869      0.84237489287659      2.36182053200233
  O          -0.38207266861410      1.72457248191372      1.22111141716727
  H          -1.24999414163037     -2.62425863050196      1.79017913518962
  C           2.39962236944067      0.82362119357138     -0.87951180090768
  H           3.46560206623086      0.63455112902080     -0.77364351021124
  H           2.08486925627425      1.53327711887788     -0.11363259827280
  H           2.19416017879441      1.23934010571426     -1.86912439072975
