21
Coordinates from ORCA-job NEB_reactant E -40.548925170480
  C           2.23118529325122     -0.44528682005156     -0.51792538374044
  C           1.43143078209271     -1.20112944654075     -1.32266863904272
  N           2.43578133263458      0.93710230768403     -0.56706703903400
  H           2.82041000263906     -0.93352007466491      0.24393582856529
  O           1.22029200883198     -2.49409093447642     -1.02193629865663
  C           3.49758118119209     -0.64797010770316     -3.62503617093045
  C           2.66880238493395      0.37696686055625     -3.44490313881527
  C           1.18890412848970      0.19637808672921     -3.27680435045555
  O           0.82665267428992     -0.92030412668918     -2.45463984260673
  O           4.83706294326747     -0.63014310975103     -3.73222214074217
  H           3.13319081813759     -1.66631543914375     -3.68980403660172
  H           3.02238844628380      1.39263549832184     -3.38041874371269
  H           0.69569715693788     -0.03387125029936     -4.22646094342363
  H           0.75692404937095      1.11147760270444     -2.85757707040681
  O           3.49515530406941      1.35525051533420     -0.12957843745194
  O           1.54612080138221      1.65765781386037     -0.99431777911941
  H           1.56122488501267     -2.72047170018799     -0.14731141974906
  C           5.48841076661581      0.61665053123937     -3.60197372895741
  H           6.55331858779072      0.40617079292763     -3.67511881511950
  H           5.27036053469333      1.07449294251878     -2.63267349849262
  H           5.19380591808295      1.30132005763198     -4.40219835150655
