21
Coordinates from ORCA-job NEB_product E -40.544552469150
  C           2.89341522953921     -0.65623808497296     -1.35234736516090
  C           1.42052663537570     -0.98461429321226     -1.04703882383432
  N           3.29793615116424      0.56090379975349     -0.61828689481863
  H           3.56150230954423     -1.45392480497087     -1.00351428327187
  O           1.11442123053624     -2.27410716418176     -1.21982836231916
  C           3.04874112518636     -0.53652509985169     -2.91429029626100
  C           2.23107779510404      0.59577757296352     -3.47025632510389
  C           1.23210459906668      0.39856545424689     -4.30956224246527
  O           0.61438474560074     -0.17761256936055     -0.71503083791581
  O           4.40720816899062     -0.55771716569471     -3.27609179616389
  H           2.66401891054321     -1.48161006652475     -3.32543405052790
  H           2.48130627466626      1.58973626654379     -3.13354664668012
  H           0.95149422106373     -0.58525617966825     -4.65004798150156
  H           0.65060360462884      1.21984112122969     -4.68903533406850
  O           4.17100525042855      0.40815711620886      0.20586823525774
  O           2.74038439548454      1.59685503693949     -0.86611032785659
  H           1.86313164804978     -2.83603787116068     -1.46229494905113
  C           5.11216308033998      0.66842623633982     -3.28961516257569
  H           6.13272473558727      0.40292276879027     -3.55769672627023
  H           5.12075976845907      1.15829307295116     -2.31293382241466
  H           4.70789012064072      1.35396485363153     -4.03860600699659
