23
Coordinates from ORCA-job NEB E -35.782761063530
  C          -0.08606475506942     -0.97169878058743     -1.15767822643156
  C          -1.36857387512162     -0.73814757802556     -1.63290575554629
  C           0.05512337519133     -1.99890605757304     -0.05750176284087
  H           0.72170233264524     -1.02502980592952     -1.87929598558375
  I          -1.50436304880815      0.14249251327983     -3.62092557210208
  C           0.19371340234172      0.82294865553964     -0.27695713079455
  C          -0.92006583887983      0.86586483483823      0.55545287787250
  C          -2.21195265845958      0.90195392539176     -0.02081289871646
  O          -2.35513681421896     -0.54904318460676     -0.86722748490412
  C           1.60870811358817      0.85880965808125      0.25296079803329
  H           0.10663244781476      1.35993108848295     -1.21804702354605
  H          -0.83457565558431      0.51693192507601      1.57327196508768
  H          -2.36809970243046      1.58339519494588     -0.85252740069754
  H          -3.06192558515236      0.84437386356871      0.64587422013077
  F           1.36961670742936     -2.17054967082014      0.28361240319927
  H          -0.29601300142668     -2.97482222947362     -0.41694254821705
  H          -0.49366472630365     -1.72761619625295      0.84816465051724
  C           1.76393185894099      0.60879737018456      1.74788201618203
  H           2.00064478494311      1.85512162989515      0.02451719640859
  H           2.22931092400479      0.14749292825600     -0.29396282263442
  H           1.21503410416366      1.34998455682168      2.32419046494665
  H           2.81542108038013      0.68103828032240      2.01466395733351
  H           1.42059653001177     -0.38332292141504      2.02419406230322
