17
Coordinates from ORCA-job NEB E -37.510661397660
  C           1.11094574930188      0.22793491178492     -0.72232734168022
  C           0.36971227607117      1.40414878948053     -0.88494126554955
  N           0.71157430034309     -0.97173789224632     -1.36874042680583
  H           2.15913152766203      0.27432042094303     -0.46247327556998
  F           1.06890906539404      2.52832941461970     -0.52123392000503
  C           0.27964397760678     -0.35160893460804      1.20112444325729
  C          -1.04766845770771     -0.41044814503718      0.75565934058712
  C          -1.74066731087013      0.75459277741430      0.50365088991215
  O          -0.84036458086946      1.50752392839022     -1.02370566782959
  O           1.03328096955856     -1.38867336694663      1.51855225556856
  H           0.61937211807952      0.54789830933665      1.70751859079629
  H          -1.41841514422044     -1.34532586492337      0.35581549705979
  H          -1.52452214207036      1.64642031974429      1.07159786334475
  H          -2.72394059434413      0.70368321614625      0.06731247600548
  O           1.31617358302692     -1.98376056045547     -1.04146806501889
  O          -0.20989165340844     -0.95623506853886     -2.15072222591082
  H           0.83672631644669     -2.18706225510403      0.99438083183849
