17
Coordinates from ORCA-job NEB_reactant E -37.540864287950
  C           1.94135642159893     -0.04425687379324      0.13065870271198
  C           1.16393879743669      0.22849406539394      1.19799244569507
  N           2.28561835408999     -1.35546228793812     -0.26287889339904
  H           2.33803968105748      0.75039559078053     -0.47812962246290
  F           0.90219449186617      1.52074240480678      1.45650463000258
  C          -0.14373476468220     -1.53970058425377      5.17344703128039
  C          -0.53709373074638     -1.38514572860361      3.91452646940119
  C          -0.19923068601874     -0.18710795651519      3.09615142863159
  O           0.63925889846596     -0.63140087648584      2.01182733934616
  O          -0.40299913431205     -2.59607476406138      5.95784820241265
  H           0.41585936205035     -0.78260867685773      5.70573742818925
  H          -1.08441963735438     -2.16318692447052      3.40267808908691
  H           0.33385298881282      0.56006559036841      3.69260627264158
  H          -1.09975456793730      0.27111086121411      2.66809284341758
  O           3.00248016852376     -1.45503462622798     -1.23913279142904
  O           1.85484758238319     -2.29275596393444      0.37729422639288
  H          -0.87481422523430     -3.27857324942198      5.46167619808117
