14
Coordinates from ORCA-job NEB_product E -22.387233347320
  C           1.21862796001331     -1.05193020512185     -1.26194159784270
  C           1.91827830623423     -1.50018280931917     -0.02747074118796
  H           1.97636335764625     -0.73834760315208     -1.98431576463592
  H           0.54088350921488     -0.22554273654682     -1.04924822553173
  Br          0.89142946328337     -1.09699566780057      1.61046557092012
  C           0.42800749213658     -2.24191048867692     -1.84768738026166
  C          -0.68919122455484     -2.66874401628956     -0.94690987635875
  C          -0.81344768378523     -3.88183079675033     -0.44400202552057
  O           2.94568812261496     -2.06899843273824      0.08184629360386
  H           0.01612741942599     -1.92013396422079     -2.80789049629808
  H           1.10833111879039     -3.07657470334748     -2.02752694189203
  H          -1.41671039150509     -1.90177097849308     -0.71585272463546
  H          -0.09825130093009     -4.66050767737864     -0.65526429078328
  H          -1.63323614858472     -4.14912992016447      0.19939820042415
