14
Coordinates from ORCA-job NEB_reactant E -22.358382014620
  C           1.98652745515639     -0.09630011923417     -0.06214148975722
  C           1.33399981160345     -1.19643779050288      0.27132483225172
  H           2.66117329437479     -0.10542114025225     -0.89930814740868
  H           1.87921904591176      0.81421940039356      0.49498827879388
  Br          0.10973273798271     -1.13179637891354      1.77784516975645
  C          -0.94078101177587     -3.26398553669469     -2.63290058895861
  C          -0.54498754360392     -2.64572552316019     -1.53758731419051
  C           0.40589586098282     -3.23456343090530     -0.54038126816931
  O           1.52415451605188     -2.38900724538303     -0.28874228714975
  H          -1.63745104691038     -2.81290907531197     -3.31782782101410
  H          -0.59287145026744     -4.25270064029153     -2.88260385927646
  H          -0.90066964460571     -1.65129770750043     -1.29964613396550
  H           0.84026656432205     -4.16542743913135     -0.90915793123264
  H          -0.12280858922253     -3.43484737311226      0.40363856032073
