23
Coordinates from ORCA-job NEB E -36.635758762610
  C          -2.04037413175752      0.55115824771906     -0.69534580070053
  C          -1.70103646579707      0.23495943553554     -1.94670741713324
  C          -2.14563557240661      2.00129481194239     -0.28516312130666
  H          -2.86632715158101     -0.03934677368010     -0.31598205890699
  F          -2.73180654968656      0.52760000182118     -3.20225965546954
  C           0.81810137730033     -0.96431799404987      0.50745268616557
  C           0.68237598936732     -0.22843806509235     -0.58537213497649
  C           0.41579973087289     -0.79626774721944     -1.93901884863561
  O          -0.77646788205291     -0.29719994382556     -2.58428102455604
  C           1.13287334617180     -0.40859295993621      1.85537085496220
  H           0.71890145451694     -2.04171548617753      0.45565907707173
  H           0.78805337694366      0.84510192737960     -0.54116397230470
  H           0.30479369028233     -1.88490127722528     -1.90120601587543
  H           1.21816711687354     -0.54554885094207     -2.64185130192842
  F          -0.88410371684458      2.52115329163357     -0.04403364572935
  H          -2.69170561035280      2.09064027596417      0.65539116798597
  H          -2.58820398256802      2.65015877800023     -1.05085915134241
  C           2.46314937647694     -0.95000739132730      2.37934539991584
  H           0.33608852894754     -0.69533700311545      2.54662014350373
  H           1.16563451838843      0.67985467012333      1.80537797201391
  H           2.43649550506838     -2.03547154173783      2.44547702357513
  H           2.67022556555410     -0.54950550717799      3.36827960219630
  H           3.27500148628287     -0.66527089861210      1.71427022147501
