26
Coordinates from ORCA-job NEB_reactant E -55.688600188260
  C           2.39489278743996      0.23398001923693     -0.34381268880539
  C           1.64907414904048     -0.05391439704439     -1.40733113723605
  C           2.17682520656690      1.32591310369995      0.65713132557378
  H           3.24992623790685     -0.39518872288295     -0.15254763789739
  C           1.93433275688776     -1.23902127350002     -2.30184009584527
  C           2.41065200917576      3.66431983260598     -2.13515782756035
  C           1.82712961898308      2.54801293356134     -2.54167561724022
  C           0.55629066779798      2.01708966295549     -1.95831069737114
  O           0.53920156874713      0.60139673011824     -1.87902512120738
  C           3.68486670373952      4.21313560796794     -2.66427213911597
  H           1.98075050868760      4.27133893965927     -1.34940787034310
  H           2.25745004690667      1.94650385455942     -3.32937272973579
  H          -0.27794974484016      2.24760743938696     -2.63180770527160
  H           0.35121548628619      2.47593216548972     -0.98516594393261
  C           2.91968723521148      1.03003728107815      1.95586267964674
  H           1.11014196695264      1.42795025759793      0.86630883303487
  H           2.53796578795757      2.27496193554154      0.24961331064912
  H           2.58005005057915      0.09037397925842      2.38432876660188
  H           2.74294839377182      1.82228067022211      2.67890408955425
  H           3.98952678896763      0.96235869062788      1.77519103964614
  Cl          2.65931671823892     -0.66097350546705     -3.83671390181461
  Cl          3.03898265020658     -2.41835769309156     -1.59623436712847
  Cl          0.41172651961901     -2.06947754750100     -2.69322934088805
  Cl          4.37859077402726      3.26912887736955     -3.98801225481847
  Cl          3.42728164525784      5.88761026060343     -3.23622675021299
  Cl          4.87652346588437      4.26200089794672     -1.32709621828192
