17
Coordinates from ORCA-job NEB E -33.677203466390
  C           0.98397710889200      0.59637437921114     -0.25928250099417
  C           0.00121870785821      1.42734437936151      0.25023210994303
  C           0.92960024875458      0.16693183209773     -1.71038892897748
  H           2.01204047473388      0.77856400153859      0.03534424616929
  I           0.54792651126228      2.54819006310022      2.02621549546082
  C           0.45138978587084     -1.08742615104812      0.71116733895600
  C          -0.89316433401654     -1.16398989035493      0.41630483273476
  C          -1.74911817987367     -0.09998472254015      0.86141136372692
  O          -1.24743884153922      1.19912482196492      0.09596073043049
  H           1.12223684033873     -1.82205167898039      0.29076542007623
  H           0.75822497123169     -0.71028446720948      1.67805459177596
  H          -1.22013994955297     -1.74735414752100     -0.43104937786601
  H          -1.63694190023956      0.19633252523188      1.90478850847915
  H          -2.78856657491275     -0.16121988946576      0.56073537426316
  F           1.74783750506590     -0.89310090459365     -1.92262995273383
  F          -0.29284790442320     -0.20728048054699     -2.13335691275535
  H           1.27376553054981      0.97983032975447     -2.37427233868897
