19
Coordinates from ORCA-job NEB_product E -47.823776168530
  C           2.61121796636433     -1.32322806755239      0.29031543281224
  C           1.31738539847044     -0.85926734465317      0.94674216395023
  N           2.73290062753439     -0.53073781667024     -0.99573515080235
  H           3.48559795594355     -1.08807326809724      0.90142917568734
  C           1.50859606659961     -0.04809407566256      2.23722876656705
  C           2.47501824942993     -2.80943433082384     -0.02846977106720
  C           2.19317363302388     -3.61741340530235      1.18893283994874
  C           1.14609854572626     -4.41521205567620      1.29363259014562
  O           0.23826539134221     -1.07480976860049      0.48819997404996
  I           4.33126954657508     -3.50483436279196     -0.95155181806020
  H           1.69826973577885     -2.94254190433068     -0.78388860897611
  H           2.91138262326628     -3.52368928648257      1.99169380702102
  H           0.96397156196691     -4.98865025193032      2.18514686923538
  H           0.42926213469453     -4.52109675309678      0.49636262305994
  O           3.49849873385265      0.38951519028262     -0.96777398936364
  O           2.04356326606021     -0.87814172550828     -1.90962614794079
  Cl          2.49967964995316     -0.96351952291067      3.38936242060071
  Cl          2.35626760352303      1.45593417037771      1.76927354993094
  Cl         -0.05171869010531      0.33009457942943      2.96632527320110
