19
Coordinates from ORCA-job NEB_reactant E -47.822788892050
  C           2.21047597311276     -0.45254663820973      0.26148006829318
  C           1.47330417203343     -0.83090331671697      1.32630772502361
  N           2.27739451672943     -1.07859347078242     -1.00857503553325
  H           2.84151898322460      0.41986095469438      0.33204427618313
  C           1.47765761515274      0.06065412434424      2.56171067096798
  C           3.10571514147169     -3.95822962383175     -0.21254566568264
  C           2.47744149502041     -3.51535988840700      0.86116449974963
  C           1.02262848477378     -3.15327354027150      0.87090313659178
  O           0.78613976140942     -1.93327035074422      1.57486150342165
  I           5.12625479518035     -4.50410595669990     -0.20020301410017
  H           2.62641895428751     -4.08360235336973     -1.16967013200546
  H           2.98972300749757     -3.38999168709693      1.80557695498191
  H           0.45228528464652     -3.88813991088497      1.44810433964578
  H           0.62233962394013     -3.09754591310236     -0.14869367301731
  O           3.30821238774589     -0.94410853361553     -1.63053790370577
  O           1.29528788523983     -1.67176967181193     -1.41953624926119
  Cl          2.84830616039098     -0.47917007855030      3.57894985261750
  Cl          1.68669160196291      1.77144074319536      2.17807954098984
  Cl         -0.02749584381996     -0.13794488813870      3.47277910483980
