26
Coordinates from ORCA-job NEB E -44.078643990030
  C           0.22257463709637      0.99131629646336      0.04850612515022
  C          -0.89520990810849      0.57089409366214      0.79207290293582
  C           0.03985558788989      2.05469477275777     -1.02012272223475
  H           1.10803459462274      1.23609095668301      0.63120049876455
  C          -0.77832570188819      0.23385584154990      2.26157974963436
  C           0.64879614751320     -0.63223575971335     -0.89758130330980
  C          -0.56101587610668     -0.95996696516924     -1.51959258293728
  C          -1.71359481998336     -1.16108197078291     -0.69930057043472
  O          -1.95899016345063      0.17815894147391      0.14060992286212
  C           1.87366650661840     -0.41023368978604     -1.75813565140895
  H           0.92006189960248     -1.19003255602743     -0.00722079857757
  H          -0.71134221357764     -0.64527091135051     -2.54040177589394
  H          -1.60719226561275     -1.88770590834703      0.10396872581431
  H          -2.64978727613036     -1.28146491023443     -1.23195147602250
  F           1.24611776448631      2.44425644927112     -1.50899854307532
  F          -0.71046349480169      1.70183079156701     -2.07590750093693
  H          -0.42414744250139      2.95618204999304     -0.58034795847806
  C           0.23831097654292     -0.86017690098702      2.59907298127366
  H          -1.76746281799904     -0.07587362907177      2.60255905737016
  H          -0.50420912030697      1.14330354559935      2.80234894942245
  H          -0.01848217703792     -1.79715610897672      2.11073930534674
  H           0.24237506089714     -1.03056499202582      3.67294933635765
  H           1.24195837601090     -0.56887057382647      2.29874876598194
  F           1.56016425928836      0.04471059161861     -3.00773923443370
  H           2.39118819973531     -1.36845048809959     -1.89912211994229
  H           2.56711926720111      0.31379103375911     -1.31793408322816
