26
Coordinates from ORCA-job NEB_reactant E -44.118993670930
  C           1.81801640366607     -0.29310269625321     -0.16055931675424
  C           1.41240553829272     -1.51501022513652      0.21819967470200
  C           1.86004694781999      0.36587682834576     -1.49652182305132
  H           2.14874434003710      0.35706202120434      0.63318427052831
  C           1.44959435910218     -1.87176184600932      1.68655799760286
  C           3.19039897883330     -2.92734232802647     -3.28634221988864
  C           2.55144554797748     -3.17898928308412     -2.15808097338542
  C           1.14547697381568     -2.74916263921416     -1.86424786309630
  O           0.93909978539648     -2.56329923346465     -0.47137501883403
  C           4.58508825922321     -3.37103312762873     -3.58445624701146
  H           2.73189453328673     -2.35879261137629     -4.08202790537760
  H           3.03147208220461     -3.74368521774318     -1.37062495497187
  H           0.45585375288501     -3.56414040718600     -2.11682708143177
  H           0.86167591877507     -1.87634001996270     -2.45271937380860
  F           2.77154680337907     -0.17508409400534     -2.36043433006832
  F           0.66753225329916      0.30858332124616     -2.16430570361077
  H           2.11390117883515      1.43235099284332     -1.40355698909443
  C           2.76151550033150     -2.58175643415503      2.02200185494141
  H           0.61438537358771     -2.54200006278501      1.89234007553522
  H           1.34361023886830     -0.97602916539994      2.29666976195823
  H           2.86234718910493     -3.48843527073770      1.43124820587314
  H           2.78353056179217     -2.85163564811894      3.07470406579984
  H           3.60897221927211     -1.93433977085005      1.80955768255487
  F           5.11807811064839     -4.12989294731867     -2.57265204775753
  H           5.24515970209727     -2.50411827011164     -3.71265562967627
  H           4.61630744746864     -3.98782186507188     -4.49157611167731
