26
Coordinates from ORCA-job NEB_product E -44.122477472400
  C           2.84835196958260     -1.17985477684756     -0.70108211978473
  C           1.52728429354875     -1.31021787792318      0.06348167306061
  C           2.99901084158118      0.27384903887559     -1.17601221934696
  H           3.69070178941768     -1.34639100228348     -0.02128056271998
  C           1.62111855279610     -1.92551945593493      1.44092963095556
  C           2.90162114933141     -2.26174686160433     -1.81428808153637
  C           1.67284143371164     -2.27289088198607     -2.68096708067167
  C           0.84014117024628     -3.29400964825983     -2.73503805138331
  O           0.49120534446501     -0.91960151860772     -0.40207727076520
  C           4.16654227268681     -2.15494047105887     -2.67977505764917
  H           2.97150338342975     -3.22685129851758     -1.29937712905753
  H           1.51282026777019     -1.39453058646538     -3.28573635948500
  H           0.98179705512054     -4.18366036737849     -2.14069583349218
  H          -0.02505444533428     -3.28220866745689     -3.37357383111143
  F           4.31033918966608      0.55426555834429     -1.39421436475344
  F           2.34519982769000      0.56425216560821     -2.30904470597445
  H           2.64692013217249      0.97843659775178     -0.40244706104413
  C           2.15155638378842     -3.35840011890538      1.42845792316029
  H           0.62301227247088     -1.90823216887556      1.88140640577264
  H           2.27954626937722     -1.29825109085432      2.04756984410284
  H           1.53345611611772     -3.98355772740517      0.78913776511947
  H           2.12050783396248     -3.76535961074838      2.43600726828069
  H           3.17973115336166     -3.40190703662477      1.07826809938794
  F           4.08543423326842     -1.15089971027972     -3.60081874457955
  H           4.29931990253205     -3.08295648334010     -3.24724831283704
  H           5.05569160723893     -1.95721599922218     -2.07018182364791
