18
Coordinates from ORCA-job NEB E -34.436762363980
  C          -0.59727460262026     -1.39819706132312     -0.54409861034880
  C          -1.86550032419135     -1.07722748866844     -0.07443709603087
  F           0.27244347678400     -1.95801130874799      0.32401383385211
  H          -0.45458611847609     -1.78139605002524     -1.54792982504938
  F          -2.76025965221832     -0.83105890170470     -1.10147996904634
  C           0.16803347314302      0.51410432179521     -0.62443448859250
  C          -0.06729243201550      0.87772120372528      0.70577567653860
  C          -1.38166894235086      1.06729242678290      1.13726787600231
  O          -2.12111867106755     -0.56726987897325      1.03064781762311
  O           1.37729759573459      0.34700017266231     -1.19197008372383
  H          -0.53256895174435      0.85150173632872     -1.38414573615980
  H           0.68718406787174      0.66195938527082      1.44691239774230
  H          -2.08713234421904      1.53805766878157      0.46570070199476
  H          -1.55388504614171      1.26705300204282      2.18327783910382
  C           2.50310022248804      0.15795401647400     -0.35208747161434
  H           3.33765039656532     -0.03287815977836     -1.02370281058653
  H           2.37054910239158     -0.69494915981049      0.31593766010469
  H           2.70502875006676      1.05834407516797      0.23475228819069
