18
Coordinates from ORCA-job NEB_product E -34.469388955180
  C           3.00483523378744      1.35205799136528     -1.70358836898145
  C           1.51464912730273      1.19364289214726     -1.56004334176129
  F           3.65700535441570      0.41716622423292     -0.94158568750120
  H           3.30090288849912      1.18943120487465     -2.74823833910104
  F           1.19024552989763      0.34448038919325     -0.56451802859548
  C           3.40139897578001      2.81048425389844     -1.28910788310663
  C           3.25228027711394      2.95492075089374      0.20186562422626
  C           2.44690029768417      3.83675220929267      0.76144452922933
  O           0.67046121119384      1.74373934079116     -2.17494449270890
  O           4.65291708670565      3.17002635673768     -1.81196250346156
  H           2.69685424952750      3.47438860618763     -1.80532616497838
  H           3.83336115047233      2.26797510871111      0.80068366636243
  H           1.85573258391521      4.52009463049877      0.17429853438496
  H           2.34692532913061      3.90956799274643      1.83061133622339
  C           5.80021746458041      2.65826189737026     -1.15846962353589
  H           6.63999545079803      2.95335431119792     -1.78446225573870
  H           5.77758275796346      1.56923878455728     -1.07655438204572
  H           5.92123503123223      3.09781705530355     -0.16420261891012
