18
Coordinates from ORCA-job NEB_reactant E -42.628662979890
  C           1.80639832108400      0.15267922175970      0.54526946196644
  C           1.40018407386669      1.33382689823785      0.05281968093903
  Cl          1.78395761570239     -0.39133849722024      2.17695337785166
  H           2.20867375618898     -0.57783636486073     -0.13946349109056
  C           1.54082671602207      1.47807876475042     -1.36171728156780
  C           2.30463063273477      2.32626313069288      3.94613790706364
  C           2.08120090677527      2.68102614529434      2.69105149816210
  C           0.74861460057969      2.55670927980903      2.01709500101573
  O           0.86098276353692      2.44022670214630      0.61290775902288
  C           3.60437198924224      2.43187335234592      4.65519797732935
  H           1.51769120584838      1.90687196132615      4.55799618236563
  H           2.86740805822432      3.09835208514643      2.07738335398151
  H           0.18975124610344      3.49051787699979      2.15160079864489
  H           0.16079575762579      1.73564666569188      2.43970690400148
  N           1.65579025807802      1.58932291615174     -2.49483902306386
  Cl          3.40321762372893      3.44788493414275      6.11510376255892
  Cl          4.10916151304066      0.79698858846890      5.18375372475634
  Cl          4.90274296161746      3.12100633911689      3.67434240606261
