24
Coordinates from ORCA-job R E -32.293287442080
  C          -1.57213416461372     -0.41989929527726     -2.73546447441547
  C          -0.33729844744225     -3.15832947163483     -2.32285598859295
  C          -1.57739206774192     -2.78907880389523     -2.00877445106977
  C          -2.18718956695512     -1.49801379593346     -2.23710682421112
  C           0.29769375861024      2.42291485714210     -0.50257261621380
  C           0.26797787339212      1.13511646897317     -0.19761648555588
  H          -2.22800686913313     -3.51325228482452     -1.53424298322643
  H          -3.23243754576811     -1.40184569554727     -1.97938316452862
  O          -2.23877549723286      0.74255997245432     -2.92669431395246
  H           0.02360506232178     -4.14898574964290     -2.10602069515658
  H          -0.52353241070994     -0.42214757261118     -3.00974642377429
  H           0.35911490530762     -2.49491889559998     -2.80524690317876
  H          -0.52726306323649      3.06423421482004     -0.25882394915410
  H          -0.58383794567954      0.68270359042645      0.30105816550876
  H           1.14856287257638      2.86195772921164     -0.99243695828720
  O           1.28430164738702      0.29312165044129     -0.51475351642881
  C          -1.49094238465330      1.79842398738994     -3.48584014341928
  H          -2.17589369266663      2.63797777425135     -3.58736793322341
  H          -1.10039494347645      1.52584106141966     -4.47211415386244
  H          -0.66030359864931      2.08057305149799     -2.82951761666159
  C           1.19249067040172     -1.00639481500981      0.02228388016160
  H           1.28312620957469     -0.98957644609525      1.11360864621943
  H           2.02102859289752     -1.57248452195206     -0.39853013011046
  H           0.24905060548969     -1.48702701000421     -0.25717096686639
