20
Coordinates from ORCA-job NEB E -33.491660799020
  C          -1.23455985882800     -2.06970771753749     -0.74272590474962
  C          -1.70569628185284     -0.82306322164352     -0.79971431172601
  N          -0.93216083538468     -2.71910915578429      0.44724115472327
  H          -1.01891896069274     -2.61248636842658     -1.64828079757714
  Cl         -1.89815346434708     -0.04364423426883     -2.35273396488070
  C           0.81226795198643      1.60386153461586     -0.41315969073443
  C           0.03467092018626      1.04521900703760      0.50745255002726
  C          -1.45498513337205      1.16257859562566      0.45950359247306
  O          -2.08924039708815     -0.11282395491726      0.28713941043920
  O           2.15092356704095      1.60520167079029     -0.55531142252219
  H           0.37864484439687      2.19981246163213     -1.20754294381890
  H           0.41547906065302      0.42862907685688      1.30723425793969
  H          -1.76219462686274      1.83301170638949     -0.35070873647086
  H          -1.86047417842140      1.52651845733176      1.40696804874300
  H          -1.13921169342980     -3.70712138586167      0.44718139085355
  H          -1.31340783048697     -2.24420021705147      1.25435985516405
  C           2.97914421730661      0.87080264848201      0.32458644276163
  H           3.68623543128459      1.56432448134341      0.78507904458219
  H           3.53201780072835      0.13257087388093     -0.26058098001256
  H           2.41961946718336      0.35962574150510      1.10401300478551
