20
Coordinates from ORCA-job NEB_reactant E -33.493869565150
  C           1.45400012037234     -0.23481806167845      0.19060811437301
  C           2.01821621508724      0.93019719217397     -0.13514081085395
  N           0.32069141895588     -0.33866635717180      0.98043860991325
  H           1.90701804954751     -1.16313231093941     -0.11745047643995
  Cl          3.52732289544833      0.92338959050099     -1.02719238379210
  C           3.82318577322860      4.38932001551403      0.51291935609439
  C           3.48927159374790      3.23180699009928      1.07438269845981
  C           2.06085163929308      2.84095801519806      1.27806403057373
  O           1.49420464192131      2.14344043592352      0.14741211259150
  O           5.05201507373446      4.85953522808342      0.22161459541791
  H           3.07233352011033      5.11675411304337      0.23196920099090
  H           4.22903488479293      2.49527730563149      1.34478749459315
  H           1.42304824554352      3.72155656971593      1.37721692481007
  H           1.95847517015132      2.20500557337695      2.16604870834341
  H          -0.28292971610528     -1.11437519992069      0.75362483881123
  H          -0.17974144856536      0.53464960268622      1.07548305596189
  C           6.14807792913292      4.00412171593784      0.45534587958992
  H           7.02824558540188      4.53873174472664      0.10298001482491
  H           6.04014753950204      3.06699422883665     -0.09849229170847
  H           6.25653086869904      3.78305360826202      1.52178032744537
