20
Coordinates from ORCA-job NEB_product E -33.496650498860
  C           3.03322923059306      1.36808974381732     -0.12096877074703
  C           1.59869939123026      1.22466157288497     -0.56667847859863
  N           3.32644789846884      0.49666557042882      0.99783518457181
  H           3.70053917096280      1.12231618267414     -0.95402650892467
  Cl          1.27629975852742      1.95855113665037     -2.14071273719013
  C           3.30184415199956      2.87992888511382      0.23072906562619
  C           2.66242137553143      3.21442920734480      1.54962723021576
  C           1.48976842827967      3.81063303963725      1.65152305506563
  O           0.72331699705405      0.69564442652186      0.03566140804132
  O           4.66393547696329      3.19552075989255      0.12598732065833
  H           2.84166623676803      3.47996168627513     -0.56279782328067
  H           3.21406976248925      2.91900402707343      2.42948981551704
  H           0.92593275287460      4.11103536959058      0.78354181613484
  H           1.04169211095933      4.02142725257550      2.60728171488811
  H           3.26376159515452     -0.47530577871580      0.71312835623229
  H           2.64342040430848      0.64153501360172      1.73538202954858
  C           5.53400650333888      2.66549273655447      1.10979556032308
  H           6.53525392339960      2.75410622266913      0.69111981099809
  H           5.30937317300316      1.61793426943752      1.31771028411313
  H           5.48652165809377      3.24646867597241      2.03647166680693
