18
Coordinates from ORCA-job NEB_reactant E -30.064580937340
  C           2.27327205178803     -1.03447919072638      0.59868768859454
  C           1.19403066440824     -1.67372732931857      0.13452378673209
  Cl          3.85870862793695     -0.99078617670779     -0.09554115355247
  H           2.21059163703948     -0.47021733307745      1.51467765707893
  O           0.01613267702289     -1.58948578044177      0.81216282557953
  C           2.78797186387416     -4.42405496431844      0.06371311235640
  C           3.02785840944016     -3.78948554891785     -1.07085858714661
  C           2.06772139657713     -2.86180254309702     -1.75830122057325
  O           0.98586043165819     -2.43077708387739     -0.95063602626627
  C           3.75269782679593     -5.33766970883559      0.73920839518621
  H           1.83954907307044     -4.29177675421237      0.56803266147913
  H           3.96763643853257     -3.91664144854811     -1.59005227544667
  H           1.57622943959419     -3.38500712973866     -2.58717086024634
  H           2.60398267254416     -2.00073370166058     -2.17313160805756
  H           0.09893077085461     -0.99790317199072      1.56839202927277
  H           3.99574338462463     -4.95786779512335      1.73127857131364
  H           4.67049846363540     -5.43108852680511      0.16438129961772
  H           3.30958417060283     -6.32509581260286      0.86403370407822
