18
Coordinates from ORCA-job NEB_product E -30.095536523730
  C           2.54852042617210     -2.45129636581984      0.89422043054952
  C           1.32740105121536     -2.53593416149604      1.81789862144943
  Cl          2.63673308142460     -0.83432506417836      0.11406075281961
  H           3.45739033211169     -2.57373276881177      1.48779825079052
  O           0.32624528884668     -1.71375671101587      1.54316737606024
  C           2.47096938735098     -3.54713036233564     -0.18771408308702
  C           3.54131266816056     -3.32294151146449     -1.21753721086288
  C           3.30847952668930     -3.14039829502787     -2.50255611644179
  O           1.27825311573759     -3.34137678890306      2.70255348757671
  C           2.65066751770277     -4.92760243021851      0.44744260851378
  H           1.48904441102856     -3.49221343098985     -0.67048446505635
  H           4.55341541124690     -3.33236919647563     -0.83472927099990
  H           2.30753699694997     -3.12654580457422     -2.90212876518693
  H           4.10616726512570     -2.99747156492817     -3.21083273395521
  H           0.57088234452994     -1.08107246831640      0.84063778908678
  H           1.92310499524148     -5.08984155997556      1.23729704703478
  H           3.64691431947700     -5.02180560756002      0.87336638774098
  H           2.52506186098883     -5.69478590790868     -0.31216010603228
