17
Coordinates from ORCA-job NEB E -29.277326800940
  C          -0.10400660983748     -1.21433860256122      0.82280418830425
  C          -1.46016016049730     -0.92332869103995      0.76177089969626
  Cl          0.75676018031147     -0.67814804935570      2.24217210156776
  H           0.24838397152708     -2.18280625538861      0.49022003001348
  I          -2.55009195964882     -2.13956105133404     -0.68574859506215
  C           0.53044756076524      0.07280919694426     -0.58785063185654
  C          -0.01988488526570      1.25147312148520     -0.09697716577543
  C          -1.42743359686709      1.39236996977409     -0.04847695577414
  O          -1.94109145965058      0.20951627694821      1.02624605149407
  C           2.01784384661836     -0.11556898307696     -0.62811873549878
  H           0.00662147169079     -0.41732076487969     -1.40385653134218
  H           0.57551741647696      1.85378635196231      0.57471469585631
  H          -1.98944208094405      1.07315543091711     -0.92236942156713
  H          -1.82674500533648      2.28519484135742      0.41371471714125
  H           2.27994765885805     -1.16507295642457     -0.73402918803129
  H           2.48887775009691      0.28034768831886      0.26747336778660
  H           2.41445590170265      0.41749247635329     -1.49168882695235
