17
Coordinates from ORCA-job NEB_reactant E -29.301444742070
  C           2.10624695433821     -0.09649278670788     -0.56198125127732
  C           1.40072416961119      0.24829399399078     -1.63128004693690
  Cl          2.95522741341778      0.98348182319694      0.49152350426059
  H           2.19713935399169     -1.12828584285119     -0.27084685447776
  I           0.47224379306704     -1.31751378788619     -2.71395054225280
  C           3.86446213476043      1.68999345778660     -2.97310775306742
  C           3.26217321187553      2.56059957786965     -2.18091299233337
  C           1.78846690794243      2.59497775392379     -1.89792541419004
  O           1.10401270055084      1.39495803649908     -2.23760637767832
  C           5.33010053363060      1.66417641008126     -3.23762732605742
  H           3.29137035135215      0.92512099642857     -3.48218905541659
  H           3.82575710100751      3.33282693295184     -1.67648872256072
  H           1.30232400323237      3.35478871862910     -2.52105882846047
  H           1.60754938538524      2.84822896067224     -0.84741458929171
  H           5.74955229623709      0.70867486624486     -2.92370688457410
  H           5.83857959889183      2.46426005795949     -2.70594543658034
  H           5.51857009070804      1.77071083121107     -4.30528142910532
