17
Coordinates from ORCA-job NEB E -29.452189397830
  C           1.06481664038688     -0.18304846753283      0.47509905646055
  C           0.26361791519487     -1.30987119073333      0.48237161375477
  C           0.78114173783249      0.90481335033664      1.48435443019737
  H           2.12410078116916     -0.31788406895971      0.28618151056602
  I           1.04144947161111     -3.06658766954544     -0.51220513290693
  C           0.31124378990203      0.64119363745140     -1.19801376911303
  C          -1.03777084742219      0.65720980868182     -0.91911349615590
  C          -1.69359825653608     -0.60568925033045     -0.71462743154784
  O          -1.01518732887918     -1.23482390922317      0.56847773633456
  H           0.84684353660248      1.57674486905837     -1.25719929809497
  H           0.69932598560913     -0.12471128630463     -1.85586406690067
  H          -1.47463126722910      1.53130074661637     -0.45874689805853
  H          -1.50162915411977     -1.36329721932251     -1.47477628039633
  H          -2.74079738915335     -0.56632436516780     -0.43636350878126
  F           1.49317152027824      0.64396363665483      2.63106674534716
  H          -0.27564400054084      0.93037210298582      1.76515782098347
  H           1.11354686529412      1.88663927533463      1.13420096831155
