17
Coordinates from ORCA-job NEB_reactant E -29.473282979590
  C           1.77283987554635     -0.03314147309565     -0.03018547057265
  C           0.89154732853782     -0.28507149969227     -0.98810435589497
  C           2.21392904073955      1.35551981099024      0.30716971025255
  H           2.21348725898630     -0.82943404655855      0.54598092309733
  I           0.34703993905205     -2.32761692901921     -1.36451375983376
  C          -0.27321792656376      2.41445625483897     -4.64345302110699
  C          -0.63557316062760      1.74552801907735     -3.56636751266006
  C           0.07242129513109      0.53032798698038     -3.05978195807523
  O           0.22707586336698      0.66119751815963     -1.64865231935963
  H          -0.82304986057131      3.27305210761322     -4.98653160318698
  H           0.57983154768811      2.12374230111401     -5.23432347303086
  H          -1.48870580906473      2.04401828929625     -2.97430859629971
  H           1.05223056073649      0.41380535088818     -3.53937213637818
  H          -0.53140172935377     -0.36573439644715     -3.27373929446251
  F           3.57906958685835      1.39562709273175      0.46197509215260
  H           1.78560767953287      1.68389972349073      1.26267065130967
  H           1.95126851000521      2.06552388963210     -0.48296287595060
