17
Coordinates from ORCA-job NEB_product E -29.501195462060
  C           1.72802424423599      0.76424680487740     -1.45146683641389
  C           0.94482964872252     -0.40818216849934     -0.96095653222034
  C           1.64752114088396      1.89191319867057     -0.41713774549960
  H           2.77900178528748      0.47624341319649     -1.56693945754511
  I           1.30995710941741     -2.20465295512675     -2.12430724923687
  C           1.19678562387138      1.21013329085845     -2.83387606931074
  C          -0.29818977070186      1.31150044382980     -2.86439590090082
  C          -1.06679610998531      0.57219849077823     -3.64124512358034
  O           0.18558218129546     -0.45323443905593     -0.05829332113053
  H           1.64304155526998      2.18345353922267     -3.05365390269402
  H           1.53063598147025      0.50248917652728     -3.59462714730080
  H          -0.73963382248669      2.04246890019676     -2.20025240202541
  H          -0.65623075402025     -0.16034373533866     -4.31718796029705
  H          -2.13843753463904      0.67024823341253     -3.63949244392594
  F           2.49463689843674      2.90312610999027     -0.78360100559629
  H           1.96672021164195      1.54553226534337      0.57111458397601
  H           0.64205161130004      2.31575943111685     -0.35178148629828
