19
Coordinates from ORCA-job TS E -34.998925675740
  C          -0.98433012692717      0.60343755334076     -1.51841095890425
  C           0.27807358775817     -1.64859179870124     -0.27577833592079
  C          -1.04912616743909     -1.60923564135617     -0.54320037965492
  C          -1.67319394011339     -0.52332999647282     -1.19462575532463
  C          -0.41269467644535      1.20988479981803      0.55322074150577
  C           0.38782175943331      0.26876174908291      1.12753578609612
  H          -1.69903666174358     -2.35489371364493     -0.10688480510881
  H          -2.75285205080938     -0.52132539606646     -1.24356880509632
  I          -1.97892048859371      2.26718972724223     -2.35243019495694
  H           0.68212397687292     -2.45405551503774      0.31449476842982
  H           0.06461011260661      0.60649927505147     -1.75486676715357
  H           0.98833279068503     -1.09894710970242     -0.86667431656643
  H          -1.44722050423193      1.26984177985846      0.83862666161743
  H          -0.00617327527282     -0.42129534256582      1.85841304687623
  H           0.01564000701470      2.10100914632683      0.12365193472737
  C           1.85557792486209      0.46367657091428      1.19282167727497
  Br          2.26603612887991      1.86486733007946      2.57964353460931
  Br          2.83045324544339     -1.13070826014762      1.74488120099746
  Br          2.63487835802027      1.10721484198079     -0.47684903344784
