22
Coordinates from ORCA-job NEB E -52.437160734520
  C           0.33103628952529     -0.62079166736048      0.68681856570426
  C          -0.81322146613188     -1.21024824079148      0.10564350637833
  N           0.06050558028758      0.12710330700520      1.91182492712837
  H           1.20764229610908     -1.25304343432158      0.80480461571425
  C          -0.71713062088510     -2.59058262215586     -0.49400299299470
  C           0.70001988179173      0.76270753588053     -0.51120562322807
  C          -0.47931301687243      1.51711415169907     -0.47165404039468
  C          -1.71284433379347      0.84574343537012     -0.83795424655853
  O          -1.88152920099647     -0.49678349349006     -0.15262638322625
  C           1.97660133866662      1.45086835029387     -0.08130794915648
  H           0.89850197181606      0.12937011852247     -1.37190683689377
  H          -0.52517653467869      2.42309595803879      0.10924574298105
  H          -1.75590118491799      0.55233299611312     -1.88949469508137
  H          -2.60305730576082      1.40144598635295     -0.55598471831724
  O           0.73791740470351     -0.17012843645321      2.86701669923776
  O          -0.84955625760979      0.92089127989478      1.88864420056332
  F           0.38863167446004     -2.65911674750673     -1.31504437579009
  H          -1.59742022612087     -2.80520156924468     -1.10518422783826
  H          -0.58478533810000     -3.36137270183227      0.27233241635616
  F           1.83096330769293      2.19026883365218      1.02137196761035
  F           2.96082046031812      0.57378966128386      0.16153882492471
  F           2.42729528049655      2.27253729904941     -1.04287537711911
