22
Coordinates from ORCA-job NEB_reactant E -52.472736098970
  C           2.21429975838224      0.42474042179689     -0.25194744977374
  C           1.47004759987652      0.27587371043822     -1.36490991022338
  N           2.38046649661438      1.56317913146719      0.57062277491153
  H           2.78386791368355     -0.42475955547856      0.09616807760000
  C           1.35376859979714     -1.10010751382492     -1.98798153914014
  C           3.05384071212378      3.89413180197224     -1.55588367524085
  C           2.44210338135954      2.93147908293143     -2.22610172874202
  C           1.00925653935486      2.54990078011706     -2.01975913505766
  O           0.80766807053270      1.14603949411987     -2.12821184105815
  C           4.46925558587867      4.28743149684232     -1.84880265048291
  H           2.57416887263666      4.47622410764751     -0.78359134970501
  H           2.97101928968059      2.36430049790211     -2.98228486208013
  H           0.40290079350662      2.96260516104154     -2.83299728111560
  H           0.64036845762927      2.92984808879798     -1.05992985632425
  O           3.44020437209201      1.66935597974093      1.15010918893215
  O           1.45231878051934      2.34748770940708      0.68844609221860
  F           1.76045986978109     -2.08346818294221     -1.14017664580655
  H           1.97543804914527     -1.16588711706826     -2.88901534324728
  H           0.30811721200098     -1.29262720684293     -2.25116983375596
  F           5.16214901203101      3.31828786985261     -2.46669923153655
  F           4.52166381289864      5.36104050659511     -2.66342514612122
  F           5.14811682047514      4.61542373548679     -0.74775865425087
