22
Coordinates from ORCA-job NEB_product E -52.471585886910
  C           2.95906919536380      1.13149344439614     -0.99705404492500
  C           1.62138793896492      0.38699269883233     -1.09953914418897
  N           3.34912450938378      1.20393582749392      0.44787778384797
  H           3.74398620372885      0.55790625663975     -1.50618730705853
  C           1.33034431743320     -0.20728348626056     -2.46559655527300
  C           2.81378906988695      2.51840312151985     -1.66381697157046
  C           1.68393721821005      3.34765867625352     -1.11051296415309
  C           0.69704822631736      3.79317606705842     -1.86351872711429
  O           0.85973598025012      0.26639152211794     -0.18779574105270
  C           4.13188994642617      3.29451445863007     -1.55596521934726
  H           2.66299726214497      2.35751104490243     -2.73838816974839
  H           1.73037857623977      3.56156472539346     -0.05319797028608
  H           0.64238735541054      3.58958193615419     -2.92120294350923
  H          -0.09454954340831      4.39055895690571     -1.44857441921996
  O           4.29995010482687      0.53250852253524      0.75386493309817
  O           2.68273848385297      1.87994360789247      1.17912042374597
  F           2.28443256685168      0.09980454733599     -3.39290339485529
  H           0.36835289183263      0.16635608897155     -2.83329213424463
  H           1.28441956732039     -1.29931377287140     -2.38202409538012
  F           4.45910122252473      3.61474734723020     -0.30219563774176
  F           5.15968485006580      2.59067742911563     -2.05563970202535
  F           4.07069405637276      4.43477097975315     -2.25095799899800
