22
Coordinates from ORCA-job P E -36.939049026150
  C          -1.17216047260196      0.57008138146688     -2.26094505736916
  C          -0.52959153238345     -1.71136087331183     -0.43498698316081
  C          -1.17226534352117     -1.86771443642534     -1.77786493576907
  C          -1.46638585707791     -0.86474937980569     -2.58692678336058
  C          -0.95460721949236      0.74722130444960     -0.75601168455659
  C           0.01354679916109     -0.29697036513520     -0.20133162287478
  H          -1.40032443617733     -2.88413524679195     -2.06485403025379
  H          -1.91911285767403     -1.05014478273091     -3.55013885588778
  C          -2.30779890661868      1.46804742804054     -2.74839790844527
  H          -1.26805597001191     -1.94753975350803      0.33730943884239
  H          -0.26626540777422      0.87416827108612     -2.80077709840578
  H           0.28077699492797     -2.43774578979742     -0.33469495959561
  H          -1.91185863097240      0.62545028992374     -0.24428497225019
  H           0.13891544137520     -0.13076885555181      0.87454924636338
  H          -0.58858616752570      1.75494173635278     -0.55030798879678
  C           1.41721670209795     -0.14302453476318     -0.78673512756132
  F          -1.98848889969185      2.79085712593565     -2.55328992047535
  H          -3.23358810626195      1.28260196986842     -2.19357293296396
  H          -2.48243862531502      1.34271413668317     -3.82166523390898
  F           2.31448474230287     -0.82018842566396     -0.02130072492874
  F           1.54100988768019     -0.66252579670228     -2.03021467404948
  H           1.75020786555466      0.90654459638071     -0.82971719059177
