22
Coordinates from ORCA-job R E -36.839319762590
  C          -1.26136483303528     -0.05349787696698     -2.78995795683152
  C          -0.62473791921926     -2.78279330755787     -1.65589378572006
  C          -1.83620478508036     -2.29159491939214     -1.89347395207390
  C          -2.13754798983757     -0.93243007928343     -2.30827219416233
  C          -0.91870103443713      1.01556734157253      0.49713560540664
  C           0.19959373413658      0.33046935844843      0.36257352252285
  H          -2.70127405500582     -2.92792830817507     -1.75548385961531
  H          -3.17913460612465     -0.64364996620407     -2.23104640188696
  C          -1.62528311124023      1.33197148713825     -3.20428210826085
  H          -0.48506643858204     -3.80372586158852     -1.34476369902247
  H          -0.21721553042375     -0.30290660377751     -2.90375463275344
  H           0.26750954868393     -2.18944988189609     -1.75586891607106
  H          -1.74886784531025      0.62962400329160      1.06230417433763
  H           0.34347305645591     -0.64338889331396      0.80800053084179
  H          -1.04387418001439      1.98566599989830      0.04621399585651
  C           1.37168320913286      0.84433244087189     -0.41304642011409
  F          -0.80666597433526      2.25444395558654     -2.57674447545483
  H          -2.65308918521117      1.59036039770095     -2.93102933139465
  H          -1.47224119431112      1.48230937234881     -4.28037473987928
  F           2.43886667556090      1.05655334537873      0.40414508686063
  F           1.78986970309664     -0.08207100816965     -1.32029049763350
  H           1.16506275510145      1.77845900408927     -0.95446994495180
