22
Coordinates from ORCA-job TS E -36.824826817910
  C          -0.75495866385423      0.32280369609160     -1.19256548354505
  C           0.54871607867018     -1.87523610968543      0.12297532704273
  C          -0.78191689925613     -1.86162744038533     -0.12514017413345
  C          -1.42140480467223     -0.79562610327649     -0.79675099683814
  C          -0.12434884069088      1.01401506656646      0.86695450109724
  C           0.66738091151428      0.07598562779186      1.44400230530489
  H          -1.41947848935007     -2.59184652288592      0.35472945228922
  H          -2.50371890738474     -0.78985537963182     -0.80926740234573
  C          -1.47983433307942      1.48242572957833     -1.80112515294859
  H           0.98180863355177     -2.63828692614067      0.74818701479569
  H           0.29986716271247      0.29596727778806     -1.41392723575631
  H           1.23976223344150     -1.33755850530427     -0.49858155107016
  H          -1.15299966549530      1.10331477405215      1.16491840761871
  H           0.30816352370150     -0.58327638183789      2.21591463358384
  H           0.31049857413126      1.85514684620953      0.35640171932812
  C           2.16309303637243      0.19176435171851      1.37328678488226
  F          -0.71116267636278      2.62129748509707     -1.76308750922117
  H          -2.41306285535551      1.71245128662585     -1.27554580199995
  H          -1.69426632004292      1.29548061921133     -2.86241882213690
  F           2.78098099432291     -0.96073264505640      1.73506351591921
  F           2.60120599242017      0.47925898898511      0.11926975406191
  H           2.55567531470575      0.98413426448837      2.03670671407162
