22
Coordinates from ORCA-job NEB E -48.206550927500
  C          -0.24710183452353     -1.04342763296911     -0.05179077386710
  C          -1.14174659651352     -0.57239100217375      0.92171851011459
  C           1.03210535899787     -1.69956978308148      0.41631005081337
  H          -0.69702589250335     -1.56728333060849     -0.89410062707071
  N          -2.52109517408646     -0.38719993137095      0.52894652196854
  C           0.22056049161142      0.67123229863958     -0.79798334869646
  C           0.63910220216223      1.38307358726372      0.32481655234454
  C          -0.29902451285714      1.59416128777286      1.40606046804515
  O          -0.71499928358048      0.19890847561754      1.89164489304367
  C           1.22054927107374      0.45127770972072     -1.91671443860079
  H          -0.76226667758525      0.87514764945370     -1.21354709552717
  H           1.69621326351281      1.43074462611302      0.54373538841031
  H          -1.24326892182859      2.06481889442547      1.12378468698779
  H           0.12355130046175      2.06370685516258      2.28899484214629
  F           1.67399546942187     -2.30648394207491     -0.62065022192014
  H           0.77269074605156     -2.49320169706924      1.12823959979533
  H           1.73697959206171     -1.00614139644572      0.88350542727244
  O          -2.92791969793336     -1.03757335820510     -0.41592644204807
  O          -3.17131104688979      0.41863318380943      1.16333695530367
  F           2.45563176424946      0.17924913056848     -1.44516444972751
  F           0.85401383354916     -0.57037220588842     -2.71492802705975
  H           1.30036634514791      1.35269058134004     -2.55028847172800
