18
Coordinates from ORCA-job NEB E -29.263230743520
  C          -0.39290278953121     -0.12185535507837     -0.65708883537682
  C          -0.24158148909471      1.30452507504277     -0.36614715357589
  O           0.77990850003268     -0.90613543113660     -0.67577220656664
  H          -0.95388918763321     -0.28095426572336     -1.58889277936435
  H          -0.95105101848905      2.00619140428114     -0.79135170517501
  C          -1.23469834894181     -0.66653968866319      0.59359465547966
  C          -0.73479969701803     -0.19211462735235      1.85025684076181
  C           0.53244902849229      0.54771602707238      1.74458968166024
  O           0.18576923114466      1.63259621081757      0.82953157912160
  I          -3.37377281912352     -0.08684826264480      0.22820726924616
  H          -1.25139039963477     -1.74050290334704      0.44815549845859
  H          -1.43528707994598      0.15632334333105      2.59306983575420
  H           1.35427055721401     -0.03142109646203      1.31498634678059
  H           0.83847513607685      1.02993474872280      2.67059605515882
  C           1.56098380651169     -0.69507773482864     -1.82738155027520
  H           2.41206587381258     -1.36739872913550     -1.74338337879906
  H           1.91111101514765      0.34179452612615     -1.88700939049630
  H           0.99433968097987     -0.93023324102197     -2.73596076279239
