18
Coordinates from ORCA-job NEB_product E -29.310646541350
  C           0.53395511618905     -0.99978827410165      0.72099191357789
  C           1.55375431046524      0.08191957182978      1.04486529915942
  O           1.06404745914719     -2.09869175678190      0.03705551234087
  H          -0.26849156634507     -0.51653981539691      0.12967052198541
  H           1.09335441121616      0.95483101005974      1.55170328563349
  C          -0.04027417701227     -1.51436770280646      2.04084470434996
  C          -0.75560900677373     -0.48162646216758      2.82889211062525
  C          -0.53836723979397     -0.26059564749834      4.11356903110654
  O           2.72172880867471      0.03375766764402      0.79951530139563
  I          -1.42700828163145     -3.12713995592564      1.55906385587369
  H           0.75067967372316     -1.99501541313687      2.61513344484518
  H          -1.50811311523188      0.07936817813841      2.28910812984616
  H           0.19477252983063     -0.82107554570708      4.66999981807870
  H          -1.08483279480786      0.48894172723125      4.65855700344260
  C           1.40801454411318     -1.85740882939204     -1.30764090058966
  H           1.70791602631886     -2.82101264133528     -1.71315285934494
  H           2.23802957966408     -1.15100338912315     -1.39121400662633
  H           0.54694372225398     -1.47605272153028     -1.87016216569987
