18
Coordinates from ORCA-job NEB_reactant E -29.304931897690
  C           1.03003197058320     -0.23466850127378     -0.16028644973907
  C           0.79875227667894      0.07632942413920      1.11214566272929
  O           1.65470325334244     -1.38043660421530     -0.55092470048585
  H           0.71911977409277      0.44897654626183     -0.94032754577306
  H           0.27382637944422      0.99255528449419      1.35761236025535
  C          -1.28541982568202     -2.25480064182217      3.98331469401650
  C          -0.87397153276751     -1.30508214567522      3.16955091527196
  C           0.44311366341359     -0.59758513887856      3.32899593193260
  O           1.22893617974500     -0.68549110918942      2.16613351017870
  I          -3.12707526559509     -3.24598095762014      3.75816357789423
  H          -0.72551646239013     -2.59170495579748      4.83899712145754
  H          -1.45742557142932     -1.00133829219912      2.31129425516423
  H           1.03483029462202     -1.05219054124721      4.12715509587891
  H           0.25210546776406      0.45960636278101      3.58093195763986
  C           1.97037092604741     -1.45542774619861     -1.91828752273763
  H           2.41221484984496     -2.43740527305207     -2.07700395190806
  H           2.69284044616430     -0.68321519757214     -2.20565688938108
  H           1.07526317612114     -1.35554051293500     -2.54290802239440
