18
Coordinates from ORCA-job NEB_reactant E -26.022424093460
  C           2.19507304506665      0.18803865620841     -0.39242065860110
  C           1.53940386478939      0.91951155467743     -1.28485086905668
  H           2.75401918826888      0.59951060041344      0.42764301817464
  H           2.17768952182751     -0.88329129932662     -0.46024063460610
  C           0.76406149698703      0.32420733970908     -2.42374815775840
  C           4.17923050568993      4.32088534611551     -0.96836526107612
  C           3.59436431908374      3.17608497852665     -0.64688521211812
  C           2.12960494357815      3.05477278454219     -0.35486957863425
  O           1.44420558310509      2.27936792958174     -1.32241196206233
  O           5.48968903581953      4.48998045835378     -1.25324171508227
  H           3.64490607668721      5.25889153201532     -1.01122369294387
  H           4.16499042862050      2.25699241881408     -0.62937830482351
  H           1.65831869880743      4.03980796323989     -0.40127780393675
  H           1.96598693658411      2.63162975354567      0.64581779832544
  H           1.17153302055518      0.67817893662197     -3.36890407834777
  H          -0.27364159855040      0.64723161771595     -2.36877429757777
  H           0.80788181358741     -0.75926830320773     -2.39446968503791
  H           5.94558311949267      3.63896773245323     -1.22169890483712
