25
Coordinates from ORCA-job NEB_product E -51.411132365210
  C           2.46368714868860      1.59304018902899     -0.44556810971116
  C           1.26631478456480      1.42898341047315     -1.34132797510687
  C           2.31473605162746      0.59459685813884      0.72581392444845
  H           3.37329185545118      1.34287088614361     -1.00618291473372
  C           1.47132456178727      0.37254595430161     -2.47354652923184
  C           2.57294220184213      3.06421247040786      0.01128477697476
  C           1.67403144900646      3.45288556264790      1.14471008172175
  C           0.60429012591691      4.20955432688213      0.99097991714804
  O           0.23416320343994      2.02689702241489     -1.27127731000897
  N           4.00100855205930      3.36215012775651      0.36109405961630
  H           2.35876641648012      3.70168022408645     -0.85651758871073
  H           1.96179633329095      3.09313355522872      2.12144494610263
  H           0.30267449368638      4.58543091474291      0.02783092444633
  H          -0.02561723946943      4.46604013790341      1.82401829612585
  C           3.55747017280203      0.54989543407205      1.60685998907840
  H           2.14710892793366     -0.40165304792488      0.31493131678907
  H           1.43656014727324      0.86607073056836      1.31378631881937
  H           4.44448987234308      0.34817498546759      1.01099434920360
  H           3.45055090085424     -0.24671398988234      2.33850121380075
  H           3.70847220327357      1.47935701400957      2.14922222126786
  F           0.34430057739944      0.11297304207174     -3.12717305740380
  F           2.36302409184302      0.83873439407902     -3.36214987129246
  F           1.95250865436471     -0.79244250288655     -2.01773906460799
  O           4.84786746276586      2.90831366796783     -0.36671718182177
  O           4.19923705077505      4.06186863230061      1.31922726708616
