25
Coordinates from ORCA-job NEB_reactant E -51.407997232190
  C           1.84941914941702      0.29035559727369     -0.13815063686008
  C           1.36192145265896      0.89317544704576     -1.21863801796507
  C           2.09894244222763      0.76452466295853      1.25827884351572
  H           2.14679777425011     -0.73961928137028     -0.28368697129320
  C           1.23166893517744      0.12159463617127     -2.52251099087057
  C           2.87810551016165      4.31725500890772      0.71326996982510
  C           2.46959504820834      3.51366701062036     -0.26111741746853
  C           1.04540035954338      3.21680142412530     -0.59229863264168
  O           0.88941701417323      2.14837615605360     -1.49253240673809
  N           4.27731818594121      4.52866641026956      0.95351700604238
  H           2.23702560596513      4.86725843272054      1.38496600927008
  H           3.21354953575772      3.02954205507156     -0.88402643715454
  H           0.61793914191310      4.07153182781738     -1.13216273079933
  H           0.44366238945422      3.06322676821161      0.31349242738904
  C           3.59145568365441      0.68247712988178      1.58873414682993
  H           1.55640544249236      0.09497518749544      1.93174242983223
  H           1.74015709158900      1.77422915372220      1.43729356160976
  H           3.95362967896702     -0.33393912237495      1.45954419223823
  H           3.76179587516546      0.98033810387416      2.62013903212965
  H           4.17133604669045      1.33557167510736      0.94110448602354
  F          -0.03380972518138      0.09690312143259     -2.96177453325163
  F           1.96568827777352      0.67907592935160     -3.49680693151057
  F           1.62749267310507     -1.15307753301956     -2.43004508552707
  O           5.07197463405253      3.87469064811261      0.31490003531262
  O           4.56241177684240      5.34779955054017      1.79786865206207
