22
Coordinates from ORCA-job NEB_product E -56.134334001480
  C           2.29202077254208     -1.71072899034820      0.65533913397220
  C           1.36048992705959     -0.85526901568329      1.49864264636008
  C           2.32538602622722     -1.15995855057175     -0.78419855142237
  H           3.31766047369489     -1.66734931617321      1.03909708507748
  C           2.08687328774256      0.03045223593436      2.53005380220927
  C           1.83123808732952     -3.18459523913266      0.70984967883412
  C           0.65052276199257     -3.51696808464558     -0.14886145614002
  C          -0.55253480463596     -3.74491731600019      0.34178784798306
  O           0.17227029160147     -0.87365108280823      1.42683278305639
  N           2.99968810620947     -4.07162763728993      0.34453728306422
  H           1.61124588797387     -3.42792002788164      1.75741660391442
  H           0.83913280809728     -3.56293611248761     -1.21113577533004
  H          -0.75915344825967     -3.70328113351667      1.39834631810429
  H          -1.38432326206349     -3.96645979991874     -0.30179124946505
  F           2.93219217979456     -2.04651047060578     -1.60206115192442
  F           1.09196045413596     -0.95945550184089     -1.28532060834788
  H           2.87548875409213     -0.20824652850866     -0.84460001704229
  Cl          2.83093216502016     -1.09214697348292      3.70318147010392
  Cl          3.35446992344467      0.98818574799139      1.73570982074337
  Cl          0.95329765083323      1.09824177291141      3.35393685277735
  O           2.73845265078264     -5.09842985641598     -0.21535390346788
  O           4.09318930638523     -3.70312811952524      0.68879138693979
