18
Coordinates from ORCA-job NEB E -42.771431313890
  C           0.48457747334029     -0.12482159700752     -1.22045718206733
  C          -0.76765919597844      0.48423742309457     -1.51310769200019
  F           0.57232813701285     -1.45642953607643     -1.41043872456562
  H           1.38808715054562      0.36042462943202     -1.58722466816275
  C          -0.77430952853545      1.86048595609908     -1.83323231526747
  C           0.49683983631535      0.00981494555254      0.61634792277593
  C          -0.67198636172066     -0.70543611809403      0.95341387841930
  C          -1.92654617951202     -0.17758225186713      0.48291131586642
  O          -1.86188606750443     -0.09843983911722     -1.05995029133950
  C           1.81775830066189     -0.49323136688936      1.15834523427041
  H           0.45548728598932      1.09349626118335      0.72015535532857
  H          -0.59111606783530     -1.76538626000417      1.13971825400746
  H          -2.12659993261565      0.85467836694448      0.77511778559484
  H          -2.78635068908918     -0.81575906132640      0.66113876484555
  N          -0.79601263981487      2.96072835080990     -2.16389289842175
  Cl          1.86309041466284     -0.07809146615393      2.90206145218780
  Cl          2.03299585441055     -2.24014753141704      0.99894828885839
  Cl          3.19130220966728      0.33145909483729      0.38014551966993
