18
Coordinates from ORCA-job NEB_reactant E -42.803668130060
  C           1.91244590528363      0.18680150421155      0.12104373049590
  C           1.48355127679936      1.27283993800178      0.77922227500018
  F           2.07682554327838     -1.03066851425568      0.66757328603426
  H           2.17467874124883      0.21178125376143     -0.92459171654912
  C           1.38848038013246      2.46340766895108     -0.00361864034145
  C           2.97621255967422     -0.09955228208222      4.65940324233711
  C           2.61943485226172      0.13629003877273      3.40725507973390
  C           1.20337027584873      0.39123141725760      2.98800051441025
  O           1.09651882076503      1.45744500941544      2.06178357147170
  C           4.35775319536033     -0.38794920712145      5.12259968369651
  H           2.24749318637111     -0.11325060539957      5.45806686823114
  H           3.35753512577719      0.14923237985262      2.61816669814110
  H           0.59779700540052      0.70766948697763      3.84043228627291
  H           0.77050779299477     -0.52878746666315      2.57382324243610
  N           1.31316022908591      3.41467501375964     -0.63417370187720
  Cl          4.81498358171204      0.79875748692489      6.38079895326618
  Cl          4.39768196271740     -2.02023721081869      5.85955868821944
  Cl          5.57166956528836     -0.33098591154564      3.84005593902109
