18
Coordinates from ORCA-job NEB_product E -42.802718143650
  C           3.20942686098007      0.93488370897547      1.83070772354317
  C           2.06000216500889      1.85290092798677      1.41673960626609
  F           3.41474154419506     -0.02226495305584      0.87432294059751
  H           4.12911252444751      1.53884878190675      1.88076669876847
  C           1.66440348313644      1.70240546622666      0.02852022151088
  C           2.90051236092694      0.31685732018735      3.20845720958335
  C           1.84765248590604     -0.75197716946620      3.07191549840808
  C           0.63934953640373     -0.64196184472920      3.58804096932757
  O           1.54274348762729      2.63522689401278      2.16644242521929
  C           4.15233598058887     -0.23649245886252      3.89294724672139
  H           2.52115033810437      1.13228916225096      3.83645255774683
  H           2.14098664292490     -1.61689466536021      2.49524502144961
  H           0.33751543044639      0.22083513537426      4.15890743616036
  H          -0.09735541716191     -1.41519006593834      3.45976325286348
  N           1.34349030668408      1.59244491421540     -1.06321755484722
  Cl          3.69466883985058     -0.87052995983606      5.49241324391343
  Cl          4.91676252528763     -1.53851146064578      2.96387668840185
  Cl          5.35190090464313      1.06193026675775      4.13959881436584
