23
Coordinates from ORCA-job NEB_product E -31.869293028760
  C           3.08317165198931     -2.10325091195351     -0.42534685321475
  C           1.59334709062634     -2.14029474422821     -0.09449347046104
  Br          3.53138599153819     -0.18444876638479     -0.46776514807755
  H           3.65594367678511     -2.50032566942893      0.41712123427494
  C           1.25691226237442     -1.76431056295775      1.32294844053097
  C           3.43387543131539     -2.83630600390857     -1.72439622669123
  C           3.19469363949412     -1.99101418108129     -2.94375442831291
  C           2.18184571505251     -2.16371027072024     -3.77013670646438
  O           0.76932263835962     -2.47577684203665     -0.90217462282230
  C           4.86023768488410     -3.41353137438664     -1.70134577329364
  H           2.73820710716811     -3.68496918026460     -1.77159893805245
  H           3.91468651494098     -1.20400172439289     -3.12055082889567
  H           1.44234818297602     -2.93054610805874     -3.61021899510044
  H           2.04076753807656     -1.53239072012586     -4.63083844424078
  H           1.44985273896341     -2.62979195090460      1.95756034614633
  H           0.20201359435738     -1.51251289334164      1.39639727861869
  H           1.86270006967884     -0.93591966455343      1.68027984025094
  C           5.97600615862541     -2.39557002062862     -1.49119399764223
  H           5.01949363124831     -3.92520155796587     -2.65342364798510
  H           4.91564891873550     -4.16835686896035     -0.91117693837392
  H           5.95019944178096     -1.61621446004881     -2.24776536274582
  H           6.93962267286131     -2.89605650940601     -1.55809645068369
  H           5.91271764816809     -1.92579901426199     -0.51273030676396
