18
Coordinates from ORCA-job NEB E -29.202882801330
  C           0.32274077703346     -0.40334564868742      1.21773490726555
  C          -1.04459712446239     -0.21850019022021      1.00968466160594
  Br          1.31394660604031      0.97840685017876      2.07920815592005
  H           0.68466707165746     -1.37985084447406      1.51417571648987
  N          -1.80891135066327     -1.35599809730911      0.76430659706539
  C           0.94810333308018     -0.15075118528914     -0.80698608095502
  C           0.37044083018494      1.09915142068906     -1.04004814888568
  C          -1.01566262225420      1.24227992466590     -1.03528277268197
  O          -1.52250309072120      0.90870201773985      0.65949841520822
  N           2.31360446763180     -0.29437405367883     -0.80179992085788
  H           0.41038734276129     -1.03767500003612     -1.12325186059881
  H           0.98052747812169      1.97147935956669     -0.85168627848621
  H          -1.61627886488279      0.45407118769291     -1.47081015921066
  H          -1.43188357820194      2.23247018923165     -1.13420891165076
  H          -2.79114873570671     -1.16878291653912      0.63435304175644
  H          -1.60943667876447     -2.17955284016920      1.30708446297721
  H           2.82217987035859      0.48968780426595     -0.41702454871612
  H           2.67382426878723     -1.18741797762757     -0.50494727624559
