17
Coordinates from ORCA-job NEB_product E -29.592438895550
  C           1.78950363335513     -2.02705280262481      0.64854040566670
  C           1.32144159695458     -0.69255854975541      1.18065680321652
  N           1.47121243619141     -2.18011134511649     -0.74335939576798
  H           2.87432105086687     -2.11344482573706      0.77732011085160
  I           2.18851324665424     -0.15972554651858      3.10802578618736
  C           1.15950022511340     -3.17492655639254      1.48952846636429
  C          -0.30791800139156     -3.30432700463044      1.18896319322076
  C          -1.25508915661024     -2.72123779481576      1.89909588798494
  O           0.57404304834313      0.05820480368381      0.65928690106421
  O           1.88932930073911     -4.33416490331393      1.17504462516543
  H           1.29553293530170     -2.92904927324643      2.55645926980677
  H          -0.53992230572351     -3.91496613227600      0.32706394823543
  H          -1.02934124755176     -2.11515355180704      2.76196214245606
  H          -2.29667440132731     -2.82260435619157      1.64880136797700
  H           1.98822189347224     -1.52606908824221     -1.31797193691625
  H           0.48015929305202     -2.05130691255050     -0.91262189404564
  H           1.40666645256054     -5.10480616046506      1.49240431853279
