26
Coordinates from ORCA-job NEB E -43.538208988700
  C           0.26912307456336     -0.29404001996116     -0.62100685298192
  C          -0.87462418496020      0.17721012970980     -1.29188523740831
  C           0.21255722265509     -1.69444939300768     -0.02853845191499
  H           1.21649860723282     -0.06963943242525     -1.09913961882921
  C          -0.77993176378637      1.25639111977041     -2.33063829198424
  C           0.18358832726272      0.95486423966305      0.83095050516742
  C          -1.05607744306588      0.67160007415940      1.42630618743320
  C          -2.21425325931543      0.84563424064078      0.61121364778215
  O          -2.03388672311533     -0.02664899784899     -0.72014259768585
  C           1.42386446223347      0.89083565267241      1.68092705971138
  H           0.23241357821266      1.85648263752235      0.22320687951817
  H          -1.09951970864162     -0.03075793360164      2.24326876931473
  H          -2.33720418192612      1.83568886276806      0.17365133092487
  H          -3.14228578523826      0.46913048530665      1.02510366565082
  C           1.52450974001150     -2.44255866821193     -0.22793172776112
  H          -0.59575512954087     -2.23747015960029     -0.52382250362967
  H          -0.03472957495888     -1.67248499242536      1.03121387828171
  H           1.76761584816887     -2.51783394973699     -1.28552454329292
  H           2.34055420382813     -1.93377924555536      0.27839415402283
  H           1.44561473785929     -3.44825393519308      0.17750201912724
  H          -0.89617888473548      2.23724261532427     -1.85880476515913
  H          -1.58783384993110      1.14602833735196     -3.05038700875147
  H           0.17442389855439      1.22549257967992     -2.84630707946989
  Cl          2.90789136902361      0.93068891998042      0.70323862900347
  Cl          1.44555792964736      2.36932827677708      2.71188410964766
  Cl          1.50806748996230     -0.49870144375884      2.76726784328306
