26
Coordinates from ORCA-job NEB_reactant E -43.568242340160
  C           1.81442472775488      0.23660982622907      0.20064191192071
  C           1.38389369087893      1.42919059316452     -0.20117015712184
  C           1.94146951546741     -0.43263173119639      1.53754418504636
  H           2.17078546129169     -0.40172926564928     -0.59797664136473
  C           1.38262382607899      1.80377960850033     -1.66062788351099
  C           2.56121288638180      2.35592013685674      3.72786064685294
  C           2.27848595343513      2.61315609326095      2.46017204744918
  C           0.89219603115849      2.58853258718171      1.88918070680231
  O           0.86956321669430      2.50286294220346      0.49024413826379
  C           3.91384069816890      2.39516636196753      4.33661738621819
  H           1.78388570939642      2.09982879366482      4.43506604388957
  H           3.05488732117193      2.87096997833343      1.75410478191884
  H           0.41272116433887      3.55419478321245      2.09895449253343
  H           0.27844292934523      1.80573473728893      2.35350932249909
  C           3.40455226964113     -0.77354649274087      1.82657695569411
  H           1.36708073638365     -1.36433083682045      1.50271165251707
  H           1.54920911822938      0.16274221430324      2.35649366286431
  H           3.80805209621450     -1.41441654233190      1.04606443239338
  H           4.00421124799377      0.13262408153715      1.86953445244607
  H           3.49265457341529     -1.29018559247068      2.77930064869378
  H           2.05881677311665      2.64089190616916     -1.82588856347573
  H           0.38416892765197      2.12389922428142     -1.95113605582190
  H           1.68811650240363      0.96961391310815     -2.28223649616338
  Cl          3.97096800499912      3.69648626065147      5.57049645452604
  Cl          4.23891486773497      0.84433154451848      5.16564379354504
  Cl          5.21422175065296      2.68200487477655      3.17541808138435
