27
Coordinates from ORCA-job P E -37.959821382690
  C          -1.22270072676756      0.31405639692210     -2.43864200171297
  C           0.10819190322918     -1.66160621649262     -1.06240929793830
  C          -1.08161469386560     -2.04141354219309     -1.88620755830539
  C          -1.71402497721286     -1.10295317632452     -2.57243832803430
  C          -1.09860903932392      0.60519647601699     -0.92706404905872
  C          -0.17518029964580     -0.39621439051200     -0.21112324181372
  H          -1.38016250095177     -3.07771249473945     -1.91002929529476
  H          -2.57077889326599     -1.31176627064791     -3.19186134772620
  N          -1.98284119558522      1.35236798193807     -3.11790646518772
  H           0.41403461018568     -2.47508691817135     -0.40596605793823
  H          -0.21490332603874      0.36070397518575     -2.88266154925510
  H           0.94653251923004     -1.45485491648692     -1.73900866650880
  H          -2.09129738550286      0.52519067049993     -0.48482946644258
  H          -0.64455237069102     -0.71865297108163      0.72145331400536
  H          -0.76404788903345      1.63463835862031     -0.77935090398212
  C           1.17725099743984      0.19185982048927      0.16935845878877
  C          -1.80666398311612      1.30996917334899     -4.55532849852768
  C          -3.38696562534096      1.42433983577142     -2.76784833243070
  H          -0.74406485009748      1.35153068517224     -4.79292589537646
  H          -2.29007599024188      2.18320546957977     -4.99119301164066
  H          -2.23281423600441      0.40935078600565     -5.02145300481675
  H          -3.49708642683461      1.53026239759275     -1.69187204984492
  H          -3.96804394635738      0.55162118384388     -3.09852247426938
  H          -3.80898489391507      2.31131738043835     -3.23919728696066
  O           1.72580159607717     -0.04041217916203      1.20739507535605
  O           1.75878111363921      0.96442699752326     -0.76194819243988
  H           1.18899050999158      1.09450548686280     -1.53325987264416
