27
Coordinates from ORCA-job TS E -37.874941860160
  C          -0.38704789683391     -0.31223328684223     -0.84189666229959
  C           1.20874126663272     -2.03660587482746      0.84997339315215
  C          -0.11840598395574     -2.24555077501924      0.61007957260245
  C          -0.90600935088105     -1.41321759352859     -0.19774228121237
  C           0.15627263353468      0.74873907682865      1.15299069751159
  C           0.94185277302768     -0.07087878923940      1.91856347004932
  H          -0.64342968884802     -2.96860475322159      1.21936582808352
  H          -1.97381358840333     -1.56291898833125     -0.16965395803474
  N          -1.10249272172452      0.56396502738551     -1.60377641798458
  H           1.72985553921729     -2.65012583835288      1.56528520679382
  H           0.67152067634534     -0.29358294553137     -1.05453739307152
  H           1.84135820223285     -1.55434854100919      0.12517487999338
  H          -0.88608891843747      0.85586100014730      1.39319692233439
  H           0.49936136061715     -0.59155903891792      2.75349351159563
  H           0.57112898969586      1.53729670040414      0.54472095697698
  C           2.41030089446140      0.03889361278371      2.00880376206408
  C          -0.44296903816291      1.73071927895059     -2.13472229007442
  C          -2.52691305687266      0.69390379182770     -1.40849669820500
  H           0.60537949891502      1.51025402394759     -2.32853202963322
  H          -0.50430277318393      2.58776717362444     -1.45152833903037
  H          -0.91090552410119      2.01380047914827     -3.07875783058113
  H          -2.77410130361228      1.04717567166072     -0.40093714993385
  H          -3.01414406869706     -0.26660114543224     -1.57184953296087
  H          -2.92142815239912      1.40354223244010     -2.13259525224481
  O           3.04927240095425     -0.37519477218068      2.93870619303189
  O           3.03394702134244      0.65521529461227      0.97606428092181
  H           2.39306080913650      0.95428897867307      0.31860716015548
