20
Coordinates from ORCA-job NEB E -50.427528944350
  C           0.86381440400952      0.43073047204518      0.31903387466415
  C          -0.04919961490892     -0.38062852183769      1.02834401510592
  C           0.74373008320412      1.94151112271216      0.47241631102936
  H           1.91353153956179      0.15127113921916      0.39321412666530
  C           0.41610310198691     -1.77972025683825      1.40189680634587
  C           0.38506163624725      0.06954881814546     -1.46059829035711
  C          -0.99800513935071      0.29287271560932     -1.48326320163528
  C          -1.82753920493268     -0.47903155307705     -0.61143472381922
  O          -1.32980192400560     -0.19543400378387      0.87439683649052
  F           1.14329790394799      0.88022637943474     -2.21612057823472
  H           0.78050627484357     -0.94380746036414     -1.51628092738082
  H          -1.34618558332707      1.25256316954267     -1.83409223598643
  H          -1.71389383143891     -1.55934712902292     -0.67790651959292
  H          -2.86781945588337     -0.17738784022903     -0.57513997646021
  F           1.69909479638148      2.57593622307494     -0.23662923983938
  F          -0.43731973623641      2.44351162856067      0.06705219234780
  H           0.87872888720068      2.22158328935777      1.53130817903762
  F          -0.45329987999522     -2.41874088984682      2.17847787607816
  F           0.60242599776245     -2.56748923385823      0.30907418557876
  F           1.59676974493312     -1.75816806884409      2.03625128996263
