20
Coordinates from ORCA-job NEB_product E -50.454418592570
  C           1.64775295426964     -0.33795862007271     -1.44155500766625
  C           0.91799329604129     -1.14729456213003     -0.40360972376107
  C           1.17375145114360      1.12441878570677     -1.36070695100739
  H           2.71914771435641     -0.34580133182351     -1.19568037347579
  C           1.39021571489664     -2.63233361235885     -0.27729880595144
  C           1.54725075517706     -0.94768525111103     -2.87639657098214
  C           0.25037640040268     -0.64786260518916     -3.56686013722931
  C          -0.79938056821610     -1.44425557137779     -3.51264197447184
  O           0.05840979222123     -0.74494318650393      0.32014040386983
  F           2.59384498003947     -0.43338187908374     -3.60192884234184
  H           1.72761126964943     -2.02878545866049     -2.82628410300630
  H           0.24005328716796      0.27934151588151     -4.12035430011697
  H          -0.79103031574966     -2.37181020373402     -2.96376583190066
  H          -1.71519145911472     -1.19298236758785     -4.01627561287174
  F           1.87173310042532      1.90082121815685     -2.21078811802444
  F          -0.12540117434344      1.25573316590554     -1.69508794080508
  H           1.29810435541586      1.52960762983171     -0.34336186821491
  F           1.21545695636402     -3.08266297135450      0.95937254120116
  F           0.70097301217852     -3.43181528720473     -1.10325052385428
  F           2.68682847767478     -2.77904940729002     -0.58146625938952
