20
Coordinates from ORCA-job NEB_reactant E -50.456858525780
  C           1.88263781294571     -0.09233173576936      0.02577224628394
  C           1.26769020152914     -0.97285579028331     -0.77579552262701
  C           2.05420381742856      1.34100837773857     -0.38383164151707
  H           2.28107158427194     -0.38971280648126      0.97792719709124
  C           1.12035060669414     -2.41423600140668     -0.31045600206421
  C           0.01774652680945     -1.23099408861381     -5.24462506863518
  C          -0.26169311309769     -0.74173440709280     -4.05200300213550
  C           0.01675462709726     -1.48106430295318     -2.78359669050752
  O           0.80806117108545     -0.61158502815988     -1.97495507197631
  F          -0.26018803084333     -0.55697609755845     -6.36380949414855
  H           0.45804408476043     -2.19654795951760     -5.45227237739287
  H          -0.69041741738080      0.24280588557947     -3.94634555792279
  H           0.54534442725697     -2.41658073523972     -2.99438197161258
  H          -0.92923742406051     -1.70203040686704     -2.27120330105461
  F           2.83435762430937      1.45220526456380     -1.48837037798588
  F           0.86636686157970      1.91005449072672     -0.70826543135976
  H           2.51092376412814      1.95241407057371      0.40883598209281
  F          -0.16311762871540     -2.80466155296707     -0.24193675447536
  F           1.73710540079842     -3.27881839818808     -1.13247527525764
  F           1.63919510340305     -2.60865877808402      0.90298811520485
