16
Coordinates from ORCA-job NEB E -37.403365789670
  C           0.50652736598001     -1.37620194283101      0.03553077945003
  C          -0.86510324290407     -0.88734145590210      0.41261551004363
  F           1.07101524580273     -2.13460555471944      1.02449302520900
  H           0.50068543436546     -1.99066589470397     -0.87301406340348
  N          -1.99790276185261     -1.59476620840583      0.06215256035636
  C           1.30979049871192     -0.02246222319818     -0.10795284741901
  C           0.23490850498390      1.02837333291995      0.02244462526588
  C           0.20089019257193      2.37754203061369     -0.51988080069110
  O          -0.95686416385652      0.46349574959843      0.21199170061537
  Cl          2.49973731522645      0.16980029499526      1.25981846512430
  H           1.91535686846872      0.05356411409368     -1.00710929579647
  H           0.34755958829657      1.85986045085071      0.85741901714145
  H          -0.74630836628596      2.69132680457926     -0.92929772018639
  H           0.89604637761975      3.17379385117693     -0.32348381866030
  O          -1.88040285412339     -2.82022877291930      0.03056808486526
  O          -3.03593600300492     -0.99148457614809     -0.15629522191452
