16
Coordinates from ORCA-job NEB_reactant E -37.497030304100
  C           2.20549370076523      0.11026419028257     -0.52143272308861
  C           1.48411659871664      0.80009019758466     -1.41180558504779
  F           2.93987032066045      0.66546237918902      0.44567585064166
  H           2.24127039202982     -0.96861730899372     -0.52738212357689
  N           0.74447421151551      0.02074809398347     -2.41144174614752
  C           3.99587746764345      2.54304749958308     -2.31444778779191
  C           3.50470034940629      3.04721018393694     -1.19467708750903
  C           2.04167872109269      3.04264175873780     -0.85604424152886
  O           1.28289443353943      2.10813899185486     -1.60766873238717
  Cl          5.67168242025912      2.55012435524624     -2.67701493845087
  H           3.38740417527634      2.09794819074468     -3.08767943842806
  H           4.14745315938575      3.49542325525230     -0.45337216687334
  H           1.59556648340138      4.01074683946297     -1.10634608902968
  H           1.90935868282513      2.86913776279334      0.21797801512939
  O           0.21294910136283      0.64086653512086     -3.29334213714980
  O           0.73120978211993     -1.18093292477909     -2.27749906876153
