16
Coordinates from ORCA-job NEB_product E -37.490646685800
  C           2.94540677912592      0.33144987943001     -1.14669084383323
  C           1.43912285553293      0.35855899884775     -1.08680952173849
  F           3.41493174689323      0.07765329169679      0.11044680317777
  H           3.29715503117562     -0.47761577991548     -1.80049347874704
  N           0.78720915415307      0.28826129739447     -2.49303732872604
  C           3.47390508773533      1.69343145928994     -1.65317480241422
  C           3.02258369025188      2.82048938676049     -0.78491026895609
  C           2.40198274863186      3.88765139161296     -1.25264706841198
  O           0.72310725945979      0.44656251082930     -0.15367961941711
  Cl          5.27236965500205      1.61936991294307     -1.64418061276577
  H           3.17522268025982      1.82599752524404     -2.69574800740340
  H           3.25102471622175      2.71059469399417      0.26547215174560
  H           2.18081776930671      4.00557462249553     -2.30102775571426
  H           2.09335445568822      4.68732099682166     -0.60323611343012
  O          -0.40940125795099      0.27902769522207     -2.50630575578420
  O           1.53820762851279      0.25817211733323     -3.43867777758142
