19
Coordinates from ORCA-job NEB E -45.038618216740
  C           0.37780268364713      1.09800274025715      0.58731717197530
  C          -0.92864942824246      1.33396016873586      0.09658705490039
  F           1.39349510734929      1.64540543749669     -0.08735029456967
  H           0.54472972667673      1.15954914369963      1.66336485721430
  N          -2.00776193963575      1.03811309165969      1.01457433295353
  C           0.54115241892372     -0.72545459180251      0.15357212102866
  C           0.27116958298199     -0.71109335093190     -1.22041323204790
  C          -1.03479099982174     -0.28378611542867     -1.65812086564628
  O          -1.18448652577076      1.17560572713777     -1.17171517374937
  C           1.92424123397889     -1.16188847705600      0.60601848111676
  H          -0.21596518263421     -1.11212362833049      0.83222282779315
  H           1.10349591668595     -0.61760978179327     -1.90363954963099
  H          -1.88163289913933     -0.79251291341383     -1.19335413564769
  H          -1.15712761646114     -0.20474173253294     -2.73334319616473
  O          -3.07163748494060      0.72105238300902      0.52662384851786
  O          -1.76439733378700      1.10715431145140      2.20513748148080
  F           2.89765043115718     -0.67393187670343     -0.18593860000402
  F           2.18148610690462     -0.73325508680952      1.86122231738772
  H           2.01122620212749     -2.26244544864464      0.60723455309218
