19
Coordinates from ORCA-job NEB_product E -45.060320879060
  C           2.03597119072026     -1.96265806071492      0.13849022534931
  C           1.18147327442276     -2.30000155866243      1.33846483700726
  F           1.22549542869846     -1.45951397016016     -0.84538528959663
  H           2.76467676730856     -1.18144777322939      0.39349988352375
  N           1.83971452797931     -1.88274439059961      2.68224995927064
  C           2.73105821619813     -3.23143661002173     -0.41666136485143
  C           3.82703049847799     -2.82816350089787     -1.36566470219364
  C           3.78967366620833     -3.06777149445814     -2.66154307800056
  O           0.12899912989644     -2.83638429616611      1.37591755309356
  C           3.29875385767894     -4.08727877143864      0.72316315549367
  H           1.97376115819315     -3.82261500779554     -0.94200200403288
  H           4.66555197125611     -2.32417776114748     -0.90568346598286
  H           2.95730583687255     -3.56986926316431     -3.12569159254494
  H           4.59313801605017     -2.76754611892825     -3.31015927913548
  O           1.55703061847812     -2.57276007898849      3.62013454705458
  O           2.55043403708327     -0.91298093775118      2.65400033290771
  F           4.08487352137652     -5.06215086642183      0.22897035766124
  F           4.07736863745663     -3.33431480875429      1.53903642014287
  H           2.52668964564430     -4.56618473069963      1.34806350483382
