19
Coordinates from ORCA-job NEB E -36.600173487430
  C           0.75128019402302     -0.36699732121603     -0.60442397201366
  C          -0.48062687508613      0.30020308762599     -0.86654633026953
  N           0.63496364070436     -1.82018883603693     -0.52262474433715
  H           1.59279477940785     -0.10651112382047     -1.24306406408865
  C          -0.53742645283341      1.42072765480371     -1.85764349101173
  C           1.12891513749565      0.07500159787146      1.10940225279064
  C           0.00550069903732     -0.35851225585547      1.83691245255528
  C          -1.27033905563095      0.17636916529547      1.44161319071262
  O          -1.50380260777070      0.08927667700015     -0.09458820626427
  F           2.30480923081506     -0.52815984014642      1.40141896906510
  H           1.31223972210317      1.14258131986788      0.97912982148151
  H           0.05316153704772     -1.31373940318216      2.33114073244416
  H          -1.37830286993997      1.25315831145111      1.57791595478008
  H          -2.11806291511301     -0.35895226106461      1.85666394368852
  O           1.38186575041750     -2.44956880672608     -1.23974011284741
  O          -0.22467916275001     -2.27707128143058      0.19295463896093
  H          -0.02090714123909      2.29748409699493     -1.46033752272902
  H          -1.57372180076053      1.68588400859193     -2.04726228927566
  H          -0.05766180992785      1.13901520997612     -2.79092122364177
