19
Coordinates from ORCA-job NEB_product E -36.638680903480
  C           2.08597957391650      0.80098264881295      1.21030480172722
  C           1.39506892590906      1.88850574772448      0.34188104077863
  N           1.32529136875045     -0.45457475047703      1.03958643945934
  H           3.11105841138306      0.62591448680980      0.87413172828349
  C           2.33174621566402      2.59597532969072     -0.58104805019310
  C           2.05311409662628      1.25903754912489      2.68369943360629
  C           2.70597517509577      0.25297755001924      3.58233185896466
  C           2.02755669047707     -0.59114348352103      4.33575299702019
  O           0.22701167038120      2.11082216892573      0.46232032251544
  F           2.74452362623494      2.45376589037372      2.74236314696844
  H           1.01844807151584      1.46897533097908      2.97971234991770
  H           3.78676394932677      0.26524260605793      3.56154865425792
  H           0.95052036800320     -0.59899605054520      4.34720149118507
  H           2.52559250575747     -1.31645883862767      4.95482651460354
  O           1.74825399892163     -1.21478352620351      0.20230789818721
  O           0.34256145072573     -0.61551093362900      1.71244543373858
  H           3.12178018453288      3.06373725020101      0.00496815944670
  H           1.79643232162951      3.35375060837036     -1.14636218164273
  H           2.78952139514862      1.88088041591353     -1.26237203882460
