17
Coordinates from ORCA-job R E -26.130110994430
  C          -1.48591221299768      0.07026059439156     -3.03928967513141
  C           0.00564213561594     -2.17297486409836     -1.69253279585356
  C          -1.31436996582040     -2.03180695292099     -1.75375758735352
  C          -2.03658058101298     -0.95699521503715     -2.40454284702559
  C          -0.72583629320377      1.37919012999953     -0.05812670957235
  C          -0.12057014733356      0.37279421614580      0.54750014879316
  H          -1.94399037285911     -2.77266047592832     -1.27890996267860
  H          -3.11583791287868     -1.00068239133255     -2.35723175909381
  F          -2.24204213362283      1.02531799848525     -3.60544996368136
  H           0.45561362815102     -3.00319831675029     -1.17735928001030
  H          -0.43336093123751      0.26008701232466     -3.17906047286915
  H           0.68465979522935     -1.47252674646789     -2.14532096910972
  H          -1.79384963761414      1.47143600517372     -0.05151479489147
  H          -0.65387780372473     -0.40383462225937      1.07499935271693
  H          -0.17263959446970      2.14444414407734     -0.57838155058832
  O           1.21598280952215      0.16573827329422      0.59794674406191
  H           1.66881921825665      0.87915121090286      0.12941212228720
