17
Coordinates from ORCA-job TS E -26.113927869180
  C          -0.57623785959424      0.66116311870515     -1.33283898374871
  C           0.63649281113880     -1.54620957141239     -0.03103445629162
  C          -0.65590531368627     -1.57181618495105     -0.43841486695847
  C          -1.25770028144825     -0.50383559919064     -1.13163538921276
  C          -0.20215020271571      1.28150486168441      0.70645622622588
  C           0.61587313570741      0.39338035905481      1.34044441662137
  H          -1.30866919516667     -2.35679902896808     -0.08239276478557
  H          -2.32973002406262     -0.49650109208701     -1.25889920099237
  F          -1.22943401412079      1.72281938637890     -1.85119556341630
  H           1.02425742402083     -2.32709198051334      0.60149379418240
  H           0.47834659602147      0.71980466994838     -1.55895307014407
  H           1.37939738974517     -0.95376878548340     -0.53115737487326
  H          -1.24829650458000      1.29233282428335      0.94795330525234
  H           0.25968526241506     -0.33157821734350      2.05143332059558
  H           0.20548647662132      2.20632613402360      0.32916659634075
  O           1.96829464313421      0.53557331957496      1.39932398958997
  H           2.24028965657027      1.27469578629584      0.84025002161484
