20
Coordinates from ORCA-job NEB E -29.881802767340
  C           0.34260000673083      1.06223198331527     -0.46871597218417
  C          -0.91439002545314      1.29759764149796      0.12626005437952
  C           0.39802749879572      0.72964867109411     -1.83902396589379
  H           1.17429869056147      1.67624311492440     -0.13733903946016
  N          -0.97403422429139      2.07165222166380      1.26951700642272
  C           0.68698636778141     -0.77506824509135      0.32205699762161
  C          -0.44668506120110     -1.46139012914985     -0.09911724856059
  C          -1.70388640879647     -1.04515456798751      0.38753532497431
  O          -1.92859524636800      0.56185002193532     -0.14883056904219
  C           2.04409992555007     -1.15718679748139     -0.19508914057743
  H           0.68953698311245     -0.41438388956580      1.34742738808248
  H          -0.41071559470597     -1.96231302916112     -1.05590541774934
  H          -1.78343120470029     -0.84607238560276      1.45173309888028
  H          -2.58459803064820     -1.51253392915839     -0.03015581998353
  N           0.46810875824547      0.48883264713757     -2.95776777707233
  H          -1.90249080835380      2.25693968583717      1.61503005860213
  H          -0.31754553076614      2.82763604484255      1.36774109633719
  H           2.79325071730000     -0.41271044563273      0.06479980088919
  H           2.02855420699896     -1.28136289926162     -1.27509269430620
  H           2.34090898020813     -2.10445571415563      0.25493681864031
