20
Coordinates from ORCA-job NEB_reactant E -29.916135289060
  C           2.14766458545144     -0.31174695323424      0.21755136517696
  C           1.63141461651296     -0.59823984047816      1.43747057852836
  C           2.29788646541305     -1.16303927226075     -0.87420347732417
  H           2.48742690217534      0.69993196172942      0.04387087557891
  N           1.49964825037539      0.37533751746938      2.39602308331328
  C           3.51901631648315     -3.28554512741537      1.46250182836184
  C           2.41459548513852     -3.52618248838902      0.77753664614602
  C           1.07892214631559     -2.89125882550660      1.03854398305048
  O           1.12780206103095     -1.76267407142122      1.89255284422889
  C           4.83829772931390     -3.91955155796000      1.18313111618642
  H           3.50634545185289     -2.58077439804834      2.28503070172807
  H           2.41504310668056     -4.22317251459215     -0.04749233540545
  H           0.42790840862197     -3.59896849743403      1.56592194163593
  H           0.60041103322459     -2.62782109569158      0.08795431774992
  N           2.45397575567827     -1.79730779238483     -1.82266115692538
  H           1.29552750384972      0.04459715221164      3.32442604619613
  H           2.08761076155853      1.18715847350782      2.32727309973058
  H           5.57337746008367     -3.15559917718519      0.93158681769309
  H           4.76387668432001     -4.61828044895617      0.35465943732748
  H           5.19804927591947     -4.44816304396061      2.06562228702264
