23
Coordinates from ORCA-job NEB E -36.788953291620
  C           0.37757711543816     -0.45297939041601      0.72459378819858
  C           0.27182337087689     -1.37904759337113     -0.31483080973639
  O           1.61058750551852      0.07482562737685      1.01880406892086
  H          -0.29802880392532     -0.54377387556821      1.57134213825411
  C          -1.02989887393469     -2.17049253553235     -0.41780268441906
  C          -0.50664102646990      1.15479949127072     -0.32790496767545
  C          -0.39446156533988      0.81243966153776     -1.68687177930661
  C           0.81223309674964      0.38955721562274     -2.19382478120944
  O           0.99821416612818     -1.32795964412228     -1.34779386610733
  N          -1.75189226133392      1.40961465592736      0.20685800464549
  H           0.28030539085909      1.77285959182461      0.08467592696477
  H          -1.30538706635739      0.51541103103904     -2.19310964567986
  H           1.72720912525201      0.74816317926785     -1.75100462804719
  H           0.88532206534262      0.05476126038117     -3.21425828015437
  C           1.69237332001633      0.76606803867376      2.23867207561586
  H           1.07610291080647      1.67390821626825      2.23842989200053
  H           2.73700613250040      1.04558601666455      2.36209776055186
  H           1.38536685771763      0.13227116658968      3.07853869295307
  F          -1.96153086113897     -1.79107655674437      0.52210298376008
  H          -0.83881404758951     -3.23819932665525     -0.26856014295858
  H          -1.48075866307356     -2.01698887008586     -1.40434587766588
  H          -2.49365536297962      0.81289621798340     -0.12858475358102
  H          -1.79305252506319      1.55735642206768      1.20277688467597
