23
Coordinates from ORCA-job NEB_product E -36.820563158250
  C           1.26895314413313      0.99725242555049     -0.37874515105659
  C           1.60364850065918     -0.10050683656366     -1.38253758743864
  O           2.44820429317009      1.27497155404652      0.33277622395117
  H           0.47775928445635      0.66338459678717      0.30932806711697
  C           0.56674091185141     -1.20528151838090     -1.55265149013533
  C           0.74968498559492      2.22534005526334     -1.18741787257936
  C          -0.05530648465622      1.77162788632348     -2.37730183699923
  C           0.32134274762021      1.92712572872899     -3.63280974710041
  O           2.62425690722331     -0.13619486764488     -2.01035526818965
  N          -0.00884520560466      3.10050588353566     -0.30198935010556
  H           1.63706306589583      2.77065087641265     -1.52595350448678
  H          -1.01262035252168      1.32486109093425     -2.13642101330134
  H           1.26914649407590      2.37196064276168     -3.88638133490265
  H          -0.29333831118900      1.60619497138223     -4.45707885119336
  C           2.25493920161913      2.05467978810137      1.49141863778913
  H           1.82838915618520      3.03135881702567      1.25146772116705
  H           3.24095950030538      2.17367848184433      1.93549594274361
  H           1.59272859961030      1.54223293558859      2.20020862955120
  F          -0.62426421879873     -0.93961700260805     -0.93289907919544
  H           0.96338276115228     -2.12844169775707     -1.11407532881105
  H           0.35962849906890     -1.36546020802819     -2.61537388874046
  H          -0.86662435893991      2.64002687775931     -0.01143342076360
  H          -0.26682912091130      3.94804951893703     -0.79657049731968
