23
Coordinates from ORCA-job NEB_reactant E -36.823496774730
  C           1.29445358486812      0.20242438692278      0.13799404846158
  C           1.27426043501544     -0.03020021405712     -1.17832889979393
  O           1.90300709512197      1.27948229757212      0.69431338739357
  H           0.81685944302238     -0.49525013004920      0.81709810098850
  C           0.51167382462043     -1.20724831225696     -1.72880009977235
  C           0.38386524193812      3.66522405122814     -2.29365186158746
  C           0.16482120045126      2.36166923373028     -2.44392911905742
  C           1.16451511949924      1.43134738164027     -3.05029077560268
  O           1.96067922282372      0.76499190868492     -2.05937145559139
  N          -0.53072041989840      4.56967484789256     -1.79169298731481
  H           1.29923187608921      4.11417858587834     -2.65515756409681
  H          -0.74399985129849      1.91140179938256     -2.07007285483136
  H           1.89666503030968      1.97492307243754     -3.65041600683898
  H           0.65855030941707      0.68923035739823     -3.68236016617865
  C           2.03953743163856      1.23882738739902      2.09369993417592
  H           2.46854627670542      2.19490150024136      2.38799974544349
  H           2.71020368472182      0.43098040549071      2.40627961980675
  H           1.06994727971712      1.10822239954239      2.58727608639813
  F          -0.83682224118777     -0.91939597364057     -1.86664078845931
  H           0.56682080940418     -2.06863265609629     -1.05734847922211
  H           0.87610246011379     -1.47805765240969     -2.72367404626815
  H          -1.29359133077213      4.15473881117711     -1.27719055527303
  H          -0.14230648232073      5.38586651189149     -1.34693526277951
