19
Coordinates from ORCA-job NEB_reactant E -37.133817682220
  C           1.99748182417488      0.22503032528786      0.11321013206474
  C           1.55536068142469      0.68942674136755      1.28263569429749
  N           2.30256801386688     -1.09729427046812     -0.12077447023074
  H           2.20794869945721      0.90636719707778     -0.69550808518920
  I           1.32352006856156      2.80364526138038      1.53363272625312
  C          -0.49471092101446     -0.55210370127570      5.30723013528782
  C           0.05816218134113     -0.91470680796815      4.16286031882435
  C           0.05888474627958     -0.07025092238912      2.93257567389700
  O           1.36944809109078     -0.08129600872186      2.38119966505123
  C          -0.50978253050769     -1.41616232103010      6.53098754066900
  H          -1.00536042893431      0.39128562778383      5.43355705791160
  H           0.56557278812803     -1.86464550616697      4.06935434231761
  H          -0.24245210143650      0.96009808435532      3.16458296059103
  H          -0.65523784082672     -0.48242484328267      2.20148986914581
  H           2.18129926441873     -1.42389228230756     -1.06548046359712
  H           1.99083908093505     -1.74002732372457      0.59180199723913
  F          -1.78356049321225     -1.59387292013198      6.97356995845114
  F          -0.01628864548356     -2.65373495089232      6.29548250302432
  H           0.06480752173697     -0.97984137889359      7.36669244399166
