21
Coordinates from ORCA-job NEB_reactant E -37.643333595840
  C           1.67076030166465     -0.13531515061320      0.09140435038318
  C           2.58408250484845     -1.11881135097382      0.19120455881667
  C           0.75297441263957     -0.02969911494108     -1.07293220264727
  H           1.58536193342330      0.61281037368448      0.85849971842704
  O           3.42706204543357     -1.22711362606364      1.24554940738538
  C           2.76282222439371     -5.36178399174402      0.02490631850195
  C           3.11174979117789     -4.13720430271672      0.38145922605088
  C           3.63749918271231     -3.10760098408000     -0.57252394156196
  O           2.71650946522575     -2.03172051391579     -0.76049169973937
  C           2.23162877468081     -6.39691934824075      0.95584944345662
  H           2.86563582666476     -5.67118742097488     -1.00740651214765
  H           3.00680928347668     -3.80938176376601      1.40662899518664
  H           3.75899896616195     -3.53018101849427     -1.57170701255754
  H           4.59632518751672     -2.71105311821638     -0.21818680589431
  F           1.42136791802904      0.11208392570406     -2.25387737874581
  F          -0.01675204583629     -1.14386219464814     -1.23332103012475
  H           0.06712511703496      0.82699325016428     -0.98627164408847
  H           3.28028054286027     -0.50452199751025      1.86539376224309
  H           2.16279764121427     -6.01434713171516      1.97082280012694
  H           2.87809625336072     -7.27405162414588      0.95072850571991
  H           1.24216467331692     -6.71623289679282      0.63057114120883
