20
Coordinates from ORCA-job NEB E -51.771002251290
  C           0.82134765482953     -0.25739293304578      0.69621637507720
  C          -0.39738899408941      0.13508712314756      1.41743790783709
  I           2.42835712322682      1.10401888772975      1.19360074866936
  H           1.17178193576415     -1.25983188210300      0.93685316273959
  C          -1.20549959623810     -0.83581831677257      2.10092833367126
  C           0.45200236791147     -0.19065972739746     -0.86769179526493
  C          -0.10444114503646      1.12504125731785     -1.16603395113132
  C          -1.23777811557161      1.52107051947568     -0.41578765834684
  O          -0.93411984284060      1.27477397033825      1.13766312379858
  C           1.63673623801150     -0.56617535312323     -1.75460836637673
  H          -0.28900262918949     -0.99597059970740     -0.98400284963780
  H           0.52685081404101      1.86248178559618     -1.63663829621994
  H          -2.11190971341405      0.87064329610862     -0.49557652112153
  H          -1.50413183386868      2.57098313966117     -0.46776227294412
  Br         -0.32349300626673     -2.24353634041193      3.01496020428347
  Br         -2.61767612205585     -0.08000291583181      3.11810495236011
  Br         -2.34388783952870     -1.92929854240338      0.34821957358001
  F           2.34334566396822     -1.58320467908318     -1.24822632329109
  F           1.19944073175387     -0.95953466978293     -2.95784438476199
  F           2.48946630859312      0.43732598028761     -1.96981196292038
