20
Coordinates from ORCA-job NEB_product E -51.810371973460
  C           1.99939753628333     -1.15375435280254     -2.25365256813359
  C           0.72691600113240     -1.93582659970899     -2.08361696689544
  I           1.77589709480158      0.41995412909033     -0.77510640398171
  H           2.89530066632879     -1.71437045213233     -1.98192893509455
  C           0.79930985887450     -3.17414402043030     -1.20076280868103
  C           2.12148156588907     -0.52913168943606     -3.64349717846002
  C           3.24676742773207      0.46819748254840     -3.71492448258398
  C           3.08969735972856      1.71025639426818     -4.12925064211545
  O          -0.30576081844675     -1.64443606228027     -2.61385915186785
  C           2.39687263015093     -1.62786182415240     -4.67299200369869
  H           1.16908771783380     -0.06252790051890     -3.92187595095630
  H           4.21401628895616      0.08973830472255     -3.41320317010908
  H           2.13152613006174      2.09332054384610     -4.43860038858257
  H           3.91802557526143      2.39458587374359     -4.17009191183116
  Br          1.85063662535785     -2.97251310818581      0.40814561051571
  Br         -0.98642729349494     -3.74465891436375     -0.74027236933052
  Br          1.66107511496473     -4.53773163967579     -2.33021433145753
  F           3.50215579034284     -2.32677600434992     -4.37314941612235
  F           1.39805689426559     -2.51633415029481     -4.76445049607345
  F           2.57276783397631     -1.12058600988730     -5.89429643454044
