24
Coordinates from ORCA-job NEB_reactant E -40.781340972190
  C           1.53045942774814      0.31787433120550      0.18816905857534
  C           1.21388209778077     -0.87599138783009     -0.33331358164639
  O           1.39973637269004      1.47348117666100     -0.50471030698537
  H           1.91951990443548      0.38666319739487      1.19675379663888
  C           1.34801633024529     -2.10183561401038      0.53104726210673
  C          -0.50322810339333     -2.77146335095310     -4.31268797324126
  C          -0.48823749686172     -1.80887828371325     -3.40680126956096
  C          -0.11027520033498     -2.00671008103117     -1.97330571743333
  O           0.83073802252812     -0.98901224672930     -1.63571459654039
  C          -0.89939843710711     -2.58651649719043     -5.73821373418603
  H          -0.22811560374836     -3.78059183014273     -4.03240000442665
  H          -0.74835410635800     -0.79251831665873     -3.66567842143025
  H           0.31955165438256     -3.00457929583140     -1.82654132052831
  H          -1.00232730063700     -1.90840659834999     -1.33634072110590
  C           1.93851524992826      2.61712038817500      0.11559601933112
  H           1.70905027240000      3.45495639517747     -0.53961998036527
  H           3.02436044886115      2.53407753483756      0.23054357654116
  H           1.48611731671126      2.78950799624539      1.09820850610048
  F           0.13880826391671     -2.64432902058804      0.85766824933822
  F           2.03357541313826     -3.09560553485087     -0.08837384581767
  H           1.86483749347870     -1.87908924477559      1.47580927422027
  H          -0.08159572888604     -2.88296971827770     -6.39422454257970
  H          -1.15601797211402     -1.55015513447552     -5.94063207377259
  H          -1.75621831880417     -3.21642886428847     -5.97603765323215
