24
Coordinates from ORCA-job NEB_product E -40.787364075250
  C           0.79927602555813     -0.39088844257441     -1.66570825988252
  C           1.52912522440086     -1.15691588811458     -0.57443836070878
  O           1.68042723362381      0.42753401329789     -2.39130997856780
  H          -0.01126610854744      0.21122441833531     -1.22517003270754
  C           0.73755360622026     -1.46156439926499      0.72378635347275
  C           0.20877535529641     -1.42648442937721     -2.65961128929526
  C          -0.62863860899689     -2.44704369157720     -1.94810456317777
  C          -0.35014930959032     -3.73584982617206     -1.90944955907010
  O           2.66705219184605     -1.52404420964056     -0.65363312442125
  C          -0.62066585218834     -0.69554320616220     -3.71446208593291
  H           1.06323118894531     -1.91085976489674     -3.14079514543214
  H          -1.51762935469719     -2.06027796792019     -1.46716503520079
  H           0.53102793484857     -4.13956066404833     -2.38062952399281
  H          -0.98246956336308     -4.43941007834097     -1.39677555944810
  C           2.16468017479662      1.53604438284347     -1.67339142593958
  H           2.75443955798989      2.11678645865682     -2.37926679164911
  H           2.80150530608271      1.23297026566131     -0.83525480528245
  H           1.33985113781943      2.15135123819250     -1.29198125839135
  F          -0.50537393331598     -0.92788411044753      0.72969967939890
  F           0.59114437197525     -2.79261631593767      0.88968267179050
  H           1.28028139309137     -1.06888122950905      1.60063548474956
  H          -0.01456114488182      0.06262608223912     -4.20164003514596
  H          -1.48563634988697     -0.21941213272825     -3.25733713813702
  H          -0.96838047702663     -1.40580050251449     -4.46028021702848
