21
Coordinates from ORCA-job NEB_reactant E -33.963628208560
  C           1.14022322853150      0.16302903582658     -0.82098218524742
  C           1.18291885143578      0.59052794414595      0.46189693436972
  N           1.85319245882163     -0.90999518554572     -1.28039257487928
  H           0.46702003047551      0.63881227013242     -1.51696178776114
  C           0.35410293250410      1.64478968386645      0.87630782194114
  C           2.69148489588658     -1.14125951542061      4.45243550904733
  C           3.01725442041900     -0.29369547393837      3.48422949695082
  C           1.99028816593704      0.44716541936031      2.69122465216074
  O           2.06045762486975     -0.01120304137820      1.35036723389779
  O           3.50595414991545     -1.87134074054989      5.24280376130226
  H           1.65966247191341     -1.31734071113182      4.72729350012955
  H           4.03982258511577     -0.11697491918850      3.19096493144443
  H           2.19037495892506      1.52961214623454      2.72110663889392
  H           0.98551485213483      0.27207455616419      3.09870438207575
  H           2.57586363606220     -1.23495448363496     -0.65681523816380
  H           2.06603090755087     -0.94771459993319     -2.26253289641711
  N          -0.31911092461662      2.51577409040858      1.21173472965842
  C           4.89403622190372     -1.76502497293150      5.02574257625117
  H           5.24089635345035     -0.73919387125285      5.18365989871571
  H           5.16174933190358     -2.08423200149258      4.01389230287188
  H           5.36396284686051     -2.42495562974081      5.75262031275810
