21
Coordinates from ORCA-job NEB_product E -33.938788515460
  C           2.84589281276713     -0.05704273849705      1.15484301609205
  C           1.94772291909728      1.14257607298895      0.94114504025936
  N           2.73915066010036     -0.94723021788728      0.01850570560339
  H           3.86661824571648      0.31263330396067      1.36153641590195
  C           0.68356998894634      0.77755847618168      0.32470659549995
  C           2.33466550277603     -0.82480943248703      2.41521134915477
  C           2.14236891400245      0.12597090195870      3.56221865407579
  C           0.99572327839802      0.26838898507926      4.19892797470816
  O           2.21850396612775      2.27374745828064      1.25584275850039
  O           3.18252646930562     -1.92418085096831      2.68018750969943
  H           1.37908031654350     -1.28865046871239      2.14293148790961
  H           3.00294020475652      0.72243184341624      3.83311063774107
  H           0.88055729012914      0.97125624112239      5.00596013012883
  H           0.12501444191228     -0.30895970942671      3.93510615148122
  H           3.04390124222127     -1.87912373522337      0.27757002915521
  H           3.28947583607503     -0.62606836040251     -0.76868286850342
  N          -0.33211483995430      0.50722737364106     -0.12767263895084
  C           4.36694162364490     -1.66386503399280      3.39985476661596
  H           4.15230302649594     -1.38499497964709      4.43607524294269
  H           4.97407239152483     -0.88052256830153      2.93424513980686
  H           4.92538570941342     -2.59834256108350      3.38907690217755
