19
Coordinates from ORCA-job R E -24.304981071400
  C          -0.79153678279833     -0.32291706898136     -2.86418394100697
  C          -0.96950984955421     -3.00921352053534     -1.54726899794081
  C          -1.98659916794717     -2.28218755170669     -1.99056664245727
  C          -1.90673099551789     -0.90578783294841     -2.44691920414537
  C          -0.89117902644508      0.86147674443029      0.38501905661400
  C           0.36335088715868      0.49222153122489      0.20226810697964
  H          -2.98236529093810     -2.70625438205146     -2.00179851579194
  H          -2.83714942914949     -0.35443450275239     -2.44673408674532
  I          -0.71468124592157      1.67888297229691     -3.48635027170269
  H          -1.10508885588087     -4.02439297967966     -1.21712916994105
  H           0.15814218660810     -0.82420135306405     -2.92264411975059
  H           0.03193007696563     -2.61680128977837     -1.48553398180529
  H          -1.66313861035911      0.14946136619009      0.62487162889522
  H           0.64324440039336     -0.55096706289996      0.29684392218361
  H          -1.19762293338240      1.89077221727923      0.29891337993445
  C           1.47589733874355      1.42386292824257     -0.13471517358588
  H           1.11402744365593      2.44384598734336     -0.22713147748737
  H           1.94481464779281      1.13295779222644     -1.07337695645490
  H           2.24287520657615      1.38774600516390      0.63881644420856
