19
Coordinates from ORCA-job TS E -24.289409091510
  C          -0.98537004099276      0.59415422150674     -1.53728011483903
  C           0.37615508813273     -1.52456187305791     -0.22699574940677
  C          -0.94239400220780     -1.59903986126710     -0.54149157420151
  C          -1.61901809416414     -0.56046809236649     -1.21613480178976
  C          -0.36885799688469      1.23741448657535      0.59519286937214
  C           0.42074579995546      0.28318071401378      1.15198248902930
  H          -1.55234585143553     -2.37833952072186     -0.10591191412449
  H          -2.69617912761728     -0.61745131504386     -1.27995510448323
  I          -2.04614477847539      2.21819446096534     -2.37099216903780
  H           0.82614465265002     -2.29288124904006      0.38058922113898
  H           0.06660682368426      0.65696022369673     -1.74046066620900
  H           1.06106768994910     -0.94922413617527     -0.82150738498964
  H          -1.41210387227172      1.30658903667904      0.84759549804497
  H          -0.00251758116399     -0.38872154050197      1.88419908482104
  H           0.07217605207675      2.10800200371583      0.13932718846806
  C           1.91410951359055      0.43640439863422      1.19120495025781
  H           2.28110146046865      0.95245358873155      0.30649673001249
  H           2.42247436768661     -0.51988729945796      1.28250070002929
  H           2.18434989701916      1.03722175311391      2.06164074790715
