21
Coordinates from ORCA-job NEB E -37.329044475720
  C           0.45428526381611      0.58354335441889      0.39311328539611
  C           0.82611523383305     -0.73957101200214      0.88812427595083
  O           1.37302172364957      1.34801674531673     -0.14923498832293
  H          -0.53994001919829      1.02444721612423      0.53595812699331
  C           0.76808016259271     -0.87670142289241      2.37199085646359
  C          -0.53488635247769     -0.45007296530560     -2.09524450194537
  C          -1.43313568147966     -0.90525036890069     -1.23695754662797
  C          -1.06372274403632     -1.83237162992321     -0.11515710564328
  O           0.32092474990435     -1.84164826096892      0.17792960585937
  Cl         -0.92688115500786      0.64788072073653     -3.36371371102354
  H           0.50422983874542     -0.73921164712682     -2.06678746820760
  H          -2.47230993045719     -0.61640111725146     -1.29974627883187
  H          -1.30778179044099     -2.86302164522762     -0.39745206819484
  H          -1.64862083712764     -1.57408788805614      0.77838875734116
  C           1.00472506892618      2.62849076023639     -0.62179384039549
  H           0.57612850078787      2.54298306012869     -1.62468523025766
  H           1.91462575973832      3.22435554035455     -0.66628493206659
  H           0.27596400496919      3.10323767346871      0.04000926474531
  F          -0.50598091946689     -0.55534605848334      2.91799703220124
  H           1.46076132046342     -0.19710478062475      2.87309137666628
  H           0.95439780226634     -1.91216627402162      2.66045508989995
