21
Coordinates from ORCA-job NEB_reactant E -37.435093524900
  C           1.50150038249772      0.18018768294782      0.00315439636787
  C           1.40181129113348     -1.12632898683896     -0.26048485772238
  O           1.28078735007675      1.13951783301468     -0.92146997282862
  H           1.77915945820762      0.50777054023610      0.99920354759192
  C           1.57095224646919     -2.15499448021990      0.82517339303240
  C          -0.73173231345906     -3.92890272935382     -3.28716418748938
  C          -0.25889937473889     -2.71463457806902     -3.06909622745391
  C          -0.17999944798583     -2.09862468933517     -1.70993505504471
  O           1.13966081132655     -1.59330151614321     -1.53031086152495
  Cl         -0.83805173675612     -4.61705127315504     -4.85704286982005
  H          -1.10757447656228     -4.57471389276595     -2.50793998376569
  H           0.11897245334245     -2.10312695290548     -3.87414520841392
  H          -0.42923745545386     -2.83298642579795     -0.93351387213720
  H          -0.89527724258302     -1.26419083876782     -1.64119862688887
  C           1.62610092584376      2.45025753017211     -0.53752267444922
  H           1.31642376868817      3.09936477346885     -1.35421759554415
  H           2.70611685475214      2.54806489571496     -0.38693809294789
  H           1.10717866142675      2.74677412226073      0.38003083913430
  F           0.40957804587783     -2.29529979924685      1.56944165147497
  H           2.35143969582233     -1.87117109498681      1.53605199775026
  H           1.78499010207431     -3.13631012022929      0.39252426067922
