21
Coordinates from ORCA-job NEB_product E -37.443444193440
  C           0.72469822265545     -0.44335572202498     -1.27441705156341
  C           1.62725032167238     -1.14091861217755     -0.24993452602077
  O           1.46143018571956      0.38255545163444     -2.13489570727952
  H          -0.06066607059030      0.12859260204433     -0.75629850256651
  C           1.01022474859198     -1.47409292274564      1.09998846871251
  C           0.08900134622314     -1.54366033996141     -2.14440523489774
  C          -0.61502886758543     -2.59658674992720     -1.35942543404985
  C          -0.30606772624464     -3.87900060959927     -1.42355163069618
  O           2.76969514542587     -1.42953945113110     -0.48087721180871
  Cl         -1.10399950673748     -0.76675312272191     -3.23331913567429
  H           0.87019026903656     -1.95948905511886     -2.78524903624841
  H          -1.42742808063826     -2.24482533198210     -0.73898580581119
  H           0.49455092568790     -4.24019082781329     -2.04780798152027
  H          -0.84329335478234     -4.61780675056406     -0.85446829951900
  C           1.94097676460782      1.56001475383727     -1.53026277041580
  H           2.41677310476480      2.13080471709036     -2.32427386182465
  H           2.67667526347203      1.34225921714847     -0.74853347494020
  H           1.11946631015539      2.14504786711523     -1.09886253343611
  F          -0.25969109031398     -0.99295454316657      1.25244043002208
  H           1.62460510182891     -1.04322898673337      1.89883745088906
  H           0.96863698705066     -2.56237158320278      1.22100184864897
