19
Coordinates from ORCA-job P E -29.544588820610
  C          -1.31315816791152      0.34530126698626     -2.37422588740068
  C          -0.01493855348626     -1.63116884917556     -1.01218834684778
  C          -1.40434872891558     -1.90432412066370     -1.48993805032190
  C          -2.03975685204825     -0.94694282557747     -2.14652908356216
  C          -0.70140646650899      0.84072931416810     -1.05027944112941
  C           0.03582302853753     -0.27515811523805     -0.28963098416235
  H          -1.85739358014969     -2.86038491768309     -1.28252058060862
  H          -3.04413491993622     -1.05143418869852     -2.52423894639426
  C          -2.23765693799183      1.40419000049236     -2.95612540112456
  H           0.33729588696957     -2.41636528365950     -0.34370192132413
  H          -0.50375970714285      0.18391302996421     -3.09793713817412
  H           0.65826184472040     -1.59797252181960     -1.87434308212272
  H          -1.51209203213227      1.23013693507697     -0.43109805535990
  H          -0.41887619331911     -0.39814970668745      0.69408149735604
  H          -0.02624968840720      1.66977348990678     -1.26372352574452
  H           1.07888195965089      0.00205343339723     -0.13512940320823
  F          -1.57281941071097      2.56728035711169     -3.17725389130348
  F          -2.72103603337045      1.01982028262082     -4.16405726840902
  H          -3.09974544784720      1.63299241947853     -2.30965049015820
