19
Coordinates from ORCA-job R E -29.443744484610
  C          -1.49645092054960      0.03283685391964     -2.95584425365306
  C          -0.13114717457592     -2.27303371605201     -1.56901744195008
  C          -1.44176646620559     -2.07340346202314     -1.65507949549258
  C          -2.07966919276673     -0.88227626932024     -2.18440357018270
  C          -0.64709172311860      1.27435305977382      0.04822973422722
  C           0.36342233591210      0.49649203320733      0.37529535507762
  H          -2.12100802544644     -2.83188321963905     -1.28827739950300
  H          -3.12447162079946     -0.75971903099932     -1.92557610422881
  C          -2.21185140074895      1.23848924821661     -3.46443557675399
  H           0.27245510803066     -3.18149964559638     -1.15675337613654
  H          -0.46836299115301     -0.04789643646036     -3.27228172730919
  H           0.58206558255910     -1.53346195819085     -1.88798142610699
  H          -1.64953773908308      1.07745839008011      0.39210754513743
  H           0.23741602820067     -0.37372830283507      0.99865242117582
  H          -0.52377090541810      2.14286131893113     -0.57676757792757
  H           1.36716646103757      0.69517302615245      0.03713250194605
  F          -1.56739344287860      2.37975417429999     -3.09630562621751
  F          -2.23064985048760      1.25838721197665     -4.82576779723152
  H          -3.25351406250843      1.31761672455869     -3.11652618487061
