19
Coordinates from ORCA-job TS E -29.433290778530
  C          -0.39091235244127      0.33005024596349     -0.99479244189499
  C           1.07286209037694     -1.75437050860792      0.32494394653652
  C          -0.26465066914375     -1.82784736004111      0.11453168494523
  C          -0.98535059837055     -0.80015882636479     -0.53592159327623
  C           0.46832242988577      1.10237932700250      1.07744517039208
  C           1.12542333662454      0.08327140285460      1.67051075428999
  H          -0.84231860907045     -2.58452485172317      0.62673295904434
  H          -2.06561263268817     -0.84211569201885     -0.49091223886237
  C          -1.20036750039235      1.44766564183927     -1.56796959208312
  H           1.56763297494840     -2.49766785656840      0.92840669086458
  H           0.64965565790642      0.35493442490859     -1.27020996853514
  H           1.71209533117643     -1.18541695693565     -0.32429884435263
  H          -0.54873855864548      1.33320448090877      1.34290994368692
  H           0.65113307058184     -0.49987785887085      2.44091582994274
  H           0.99145698055151      1.84971549116683      0.50751891638707
  H           2.19805227960084      0.01266289604387      1.61384219573457
  F          -0.58794206501662      2.64742624704790     -1.39602363127283
  F          -1.33560964429078      1.30595498053146     -2.92038228779472
  H          -2.21513152159328      1.52471477286348     -1.14724749375201
