18
Coordinates from ORCA-job NEB E -42.650855496780
  C          -0.19211037900986     -1.82868616566990     -0.70798886170710
  C           0.12596070005311     -0.80875049136365     -1.55185445629519
  C           0.82916632403923     -2.29204749642054      0.26830584510714
  H          -0.68268493786860     -2.67560130220584     -1.17837985819821
  Br          1.57311117496681     -0.91322880147092     -3.11561402827536
  C          -0.22947654264512      1.66709294142323      1.42091599382219
  C          -0.52068061283453      1.89718140330441      0.14255794731450
  C          -1.24207280951326      0.90555666738174     -0.71590592578375
  O          -0.30091198122398      0.36653110046728     -1.67175519796470
  C           0.46421078377918      2.60673216051997      2.21310235256391
  H          -0.51117138612161      0.75232372346672      1.92616750397821
  H          -0.20556665848455      2.80972263771287     -0.34382753017226
  H          -2.01604455926510      1.39542907908076     -1.31326082298327
  H          -1.65634800978356      0.08116751765431     -0.12657895937948
  F           1.96865222582714     -2.80086042392079     -0.24793277189389
  F           1.22211721611304     -1.27772043249131      1.07225018128177
  F           0.32979822916201     -3.23891110223332      1.07118290676541
  N           1.04405122280966      3.35406898476500      2.85861568182008
