18
Coordinates from ORCA-job NEB_product E -42.732329964320
  C           1.51869007597073      1.33224705704964      0.86440445617453
  C           2.70539333455474      1.48652036781386     -0.05714039488222
  C           1.83869477843345      0.27667731376322      1.92715668452673
  H           0.65066052922291      0.97327056581526      0.29988209262800
  Br          2.20829817763157      2.34277271013923     -1.73435697643860
  C           1.15788358109405      2.68363808745347      1.55447176958511
  C          -0.01647725575404      3.36215386919112      0.88980815161922
  C          -1.14076625927064      3.62533701584635      1.52635991285235
  O           3.82192287082996      1.16495301220332      0.12901348048211
  C           2.29457961787179      3.58659351724885      1.53588461293039
  H           0.90773514279353      2.48645710628566      2.60470549056947
  H           0.12351717116832      3.63391022751594     -0.14624503135170
  H          -1.96118852217597      4.11354346878824      1.03092854760601
  H          -1.29018668339863      3.36678795608743      2.56214882831394
  F           2.81360386364826      0.64709855582830      2.75562812432181
  F           0.75710661437622      0.03950892970842      2.68785484891339
  F           2.18561212852316     -0.89025791769899      1.38070744502587
  N           3.16782083448057      4.32018815696066      1.49918795712362
