27
Coordinates from ORCA-job NEB E -47.598048336650
  C          -0.13178263415072     -0.70720010864719     -0.15990477783058
  C          -1.15474468324753      0.25251866432762     -0.33223787135518
  C          -0.44077602583908     -2.04160694951372      0.44378835691556
  H           0.53565421801629     -0.83381437022192     -1.00870779211205
  C          -1.07888809669219      1.15529655034683     -1.54450614159936
  C           1.01061386666157      0.34965203446943      1.14565291442888
  C           0.08057743824753      0.58419125414372      2.16903381610327
  C          -1.03778960610891      1.37792360588412      1.91417373221455
  O          -1.93740660799252      0.54801498695132      0.62808467945834
  O           2.09914372955765     -0.39192897264776      1.44301716565309
  H           1.19122164586466      1.15210801688752      0.42753760665460
  H           0.07549400338900     -0.11070031216573      2.99311922268713
  H          -0.90753328536244      2.28868884436455      1.34414988889864
  H          -1.79755074997058      1.44026637245896      2.67837690621152
  Cl         -1.48221801887382     -2.02950511498458      1.86026074181638
  Cl         -1.31821569235428     -2.98797127390151     -0.83756552256433
  Cl          1.02047329827996     -2.98383354251621      0.82127910615101
  C          -1.49618895345333      0.40832637399932     -2.81102230754581
  H          -0.05809143751272      1.53148607623212     -1.66319676355359
  H          -1.74711783124459      2.00234660615971     -1.38316370036495
  H          -0.83811672744714     -0.43640928378132     -2.99871887648557
  H          -1.45958284854694      1.07473255616705     -3.66933786327833
  H          -2.51081273891339      0.03300719014051     -2.70682863169195
  C           3.13551790039877     -0.40807502050682      0.48833586608398
  H           2.85543811520208     -0.99352694924286     -0.39269692229771
  H           3.98724979388636     -0.88098808837075      0.97234372157789
  H           3.40543192820630      0.60700085396761      0.17873344582457
