27
Coordinates from ORCA-job NEB_reactant E -47.640955868520
  C           1.55858756337983     -0.31079322243689     -0.07699938387623
  C           1.65957076785646      0.99098868899137      0.24153033009735
  C           1.17359391337466     -1.34759856151453      0.90301387429440
  H           1.74386470244600     -0.64190450183232     -1.08292792291220
  C           2.02885561894929      2.00231039822226     -0.80711342732792
  C           3.96036637307277      3.72129984074442      1.80699128576031
  C           3.22477075037114      2.69493404899852      2.21778055479903
  C           1.74128990250620      2.61988136954882      2.01898373206840
  O           1.33979479546224      1.36092564882952      1.49527243371621
  O           5.29021310353003      3.90610006315895      1.93286054982521
  H           3.51805593800366      4.57863513367539      1.31353888799408
  H           3.65350712575509      1.83730878985482      2.71187970010029
  H           1.38202439166618      3.45011322727132      1.40178193145615
  H           1.22942467743443      2.65837883030168      2.98702596041067
  Cl          2.28222655780976     -1.36256955089015      2.30692145297457
  Cl         -0.47875016025605     -1.07932778583205      1.54367221371272
  Cl          1.21525991535161     -2.95795702024684      0.16511682327728
  C           0.77053251142934      2.66535130144957     -1.37524535705154
  H           2.55848104282114      1.49117368030898     -1.61050926848338
  H           2.69560084607903      2.75640216049218     -0.38870541178077
  H           0.13290835862514      1.91751166500956     -1.83963078558739
  H           1.04390985893670      3.40497351371992     -2.12362065749861
  H           0.19775579252690      3.15903557995709     -0.59374911500814
  C           6.03339761987792      2.88975527536291      2.56749162455744
  H           7.06788095231802      3.22749367620086      2.56320595072099
  H           5.95384872817290      1.94331839157310      2.02428835100924
  H           5.69932835249964      2.74225935908155      3.59874567275185
