18
Coordinates from ORCA-job NEB_reactant E -42.196967411270
  C           1.73198743012759     -0.06935822913272      0.01253854756420
  C           1.09554764630757      0.12708601425992     -1.15778884904785
  C           2.02198302242381      1.04067723312693      0.93848188492425
  H           2.05073743268179     -1.05380019510238      0.30575809550827
  O           0.81559941777431     -0.86703483931612     -2.02508354972842
  C          -0.02568808162118      3.65339262765122     -3.96987026663837
  C          -0.34512237073037      2.92442783582322     -2.91412702543721
  C           0.02762324979450      1.48348150917159     -2.77405325785178
  O           0.70125674623776      1.34147304264509     -1.52494985466094
  Cl         -0.47558384976180      5.29825785492973     -4.13181417484917
  H           0.52205917922089      3.26774315753821     -4.81676924197190
  H          -0.88147612523766      3.34850697843360     -2.07898272770195
  H           0.67981060958332      1.15783992943417     -3.59148058870950
  H          -0.87380376931455      0.85638248269581     -2.77161373923687
  Cl          0.52504701310350      1.86933949917870      1.47284660193636
  Cl          2.85910564091437      0.44413838094294      2.37695271247065
  Cl          3.05601154343425      2.29269474195060      0.17316201697828
  H           1.13300526506189     -1.71214802423048     -1.68600658354805
