21
Coordinates from ORCA-job NEB E -32.439060745300
  C           0.23021660613605      0.26063927274208     -0.38267396965710
  C          -1.13877648174130      0.06412510891617     -0.54533776832249
  I           1.50315154786074     -1.19867548342864     -2.14179934463283
  H           0.65568997241127      1.15019259354301     -0.82054141200139
  O          -1.94836324249723      0.84429887647986     -1.28384321987167
  C           0.76213367745628     -0.10913602908170      1.02117040912137
  C           0.20595503829109     -1.45959758435075      1.27635367504727
  C          -1.24414448023871     -1.56754298021516      1.20845075871118
  O          -1.83210760581599     -0.89702369363106      0.03012467106225
  C           2.27834917112396     -0.03543499368296      1.12672938965572
  H           0.33657014037501      0.63229236003415      1.71555638696463
  H           0.80565853870735     -2.31527551787663      1.01828759851543
  H          -1.74255493505103     -1.07315279720917      2.05122714154530
  H          -1.59722549809789     -2.59621799808747      1.13692493115962
  C          -1.39648776942895      1.88515140102526     -2.06445526116801
  H          -2.22907632820127      2.27599020646486     -2.64612935850794
  H          -0.62478395655237      1.50914317320216     -2.74014612448128
  H          -0.98629438343818      2.68246047729378     -1.43823979903087
  H           2.64118698612582      0.92615429701164      0.77134382717244
  H           2.74556305775995     -0.82119201427906      0.54163605355167
  H           2.57533994481539     -0.15719867487035      2.16536141516670
