21
Coordinates from ORCA-job NEB_reactant E -32.486039965770
  C           1.83937865833440     -0.26720965118322     -0.11995570429945
  C           1.79381954110036      0.69916874998052      0.79539438080566
  I           1.17774136374210     -2.21178537828403      0.27096931092424
  H           2.20183541442287     -0.08760383015443     -1.11325675263749
  O           2.23365070780211      1.93636038440049      0.43357699707162
  C           3.76613347257560      1.37069488077244      4.35514206245807
  C           3.43914444368716      0.76897844652310      3.22273586201884
  C           2.18506965261540     -0.02348773608001      3.02325337783025
  O           1.30030372592453      0.55524902011924      2.05111619961297
  C           5.01519667644485      2.15536229696637      4.56729542963776
  H           3.10729638943819      1.29709287599606      5.21133915500571
  H           4.08891773719476      0.83540952659919      2.35819753311457
  H           1.58786636504228     -0.05809810952056      3.93602684832707
  H           2.43958460435271     -1.04812788077956      2.72222473254087
  C           1.88790921243264      3.01574408397828      1.28303346229481
  H           2.23731951255529      3.90845372736804      0.76896392749503
  H           2.37889068212345      2.93030431527878      2.25630486856963
  H           0.80633310613983      3.06728115072325      1.42871104194153
  H           5.61274284861309      2.19597265677681      3.66012422261989
  H           5.60932354957921      1.70354701240467      5.36095575017712
  H           4.77244233587916      3.17119345811459      4.87824729449126
