18
Coordinates from ORCA-job NEB_product E -41.403905771730
  C           1.46088111263223     -0.64024207205049      1.47250552166833
  C           1.70232263879995      0.80932660484483      1.86614892105491
  C           2.36151357492417     -1.01767614666281      0.29402536694139
  H           0.41805193795324     -0.71131409042898      1.12927324878121
  F           1.47176373387640      1.64567130473225      0.83265026373193
  C           1.59527289460452     -1.52978336636015      2.73527284911516
  C           0.74147972695983     -2.78172053354056      2.66102165682421
  C          -0.56986523908800     -2.75396711057493      2.51915570836851
  O           2.00527599189767      1.23440766269963      2.92069355563971
  C           2.96808669633823     -1.88520108359934      3.03146576327042
  H           1.24649161988661     -0.92107578599440      3.58284898112656
  H           1.26944792197722     -3.71936881504886      2.75215612538801
  H          -1.13142575119114     -1.83565272921140      2.44485821435581
  H          -1.14288984922050     -3.66236182708183      2.47569525301590
  Br          1.60038997426719     -0.34122020936137     -1.38300339722772
  Br          4.16434104139182     -0.26418047089780      0.48770521317123
  Br          2.51853278585698     -2.94669257956081      0.06847248495313
  N           4.03022918813359     -2.20834875190299      3.29695426982130
