22
Coordinates from ORCA-job NEB E -39.763191529150
  C           0.49326639518738      0.74282966921628      0.51552385812213
  C          -0.77529879223202      0.38555187133693      1.01468147991144
  C           0.57282194867697      1.91310828356941     -0.42783308827921
  H           1.31762802366166      0.67897396608656      1.21993900586376
  C          -0.91177475559601     -0.41397467611572      2.29058745091113
  C           0.71010399449493     -0.81034935586499     -0.58373307191899
  C          -0.37465113353859     -0.74906665481091     -1.47022987448894
  C          -1.67359367043235     -0.84291954888364     -0.90818748644973
  O          -1.78673205023053      0.35752622107513      0.19798278878192
  N           2.03777256272459     -0.67250408371660     -1.14913844797517
  H           0.72900790619292     -1.56335986641500      0.19955670712891
  H          -0.22530671356394     -0.23188640995196     -2.40619125135605
  H          -1.86188902516099     -1.69709721511399     -0.26149762378642
  H          -2.50452949948251     -0.63756282981652     -1.57130688917117
  H          -0.35469782306831      2.01068941459843     -0.98627148354598
  H           1.40241611751653      1.83464322216961     -1.12598037221607
  H           0.71950188807089      2.81666056231847      0.16194075873672
  F           0.25071012324694     -0.43575869512443      3.00906502160620
  H          -1.17659761571109     -1.45904592144899      2.06736344128640
  H          -1.68946885177608      0.01743873653529      2.93062361099970
  O           2.92846786028095     -1.26766692605141     -0.58801839643176
  O           2.17284311073868      0.02377023640805     -2.12887613772879
