22
Coordinates from ORCA-job NEB_product E -39.799524770480
  C           2.88457215875211     -1.66099981596871     -0.64334346379716
  C           1.68536603484567     -2.25833340223723      0.08318625425017
  C           2.82509603602842     -0.14216613749505     -0.80713984557025
  H           3.76076437726854     -1.91321583418131     -0.02757664339840
  C           1.18823969572489     -1.43771228251127      1.26330945839960
  C           3.06965207941075     -2.38420704351106     -1.99212032657691
  C           2.15409484528821     -1.89337372013194     -3.07178322402604
  C           1.04161085814137     -2.51790474288612     -3.40822734993703
  O           1.19250462638765     -3.30758169521691     -0.22323031625113
  N           4.49341448921931     -2.26690583396867     -2.41807754117892
  H           2.89365258554736     -3.45407768020106     -1.81664258976524
  H           2.45934942830047     -0.98436763807075     -3.57000209193146
  H           0.73202219118082     -3.42734836387159     -2.92075023016382
  H           0.38946717525002     -2.13469662528342     -4.17315930247473
  H           1.90914659362134      0.15975183520367     -1.30907787167757
  H           3.67087551127286      0.19658171530172     -1.40190001816631
  H           2.88116558338176      0.35670296552010      0.15593363585851
  F           0.25912316487492     -2.13208469489973      1.97976369418856
  H           0.70362299229623     -0.52068511211791      0.90895563931684
  H           2.01089727163743     -1.19111780057007      1.94352420715927
  O           5.33508297148255     -2.40639128951981     -1.56229669376083
  O           4.71357933008730     -2.06026680338289     -3.58364538049714
