22
Coordinates from ORCA-job NEB_reactant E -39.787784023870
  C           1.61657076528131     -0.19700965741243     -0.14324508165051
  C           1.46754695638839     -1.41112534653393      0.37316735798551
  C           2.27589392504831      0.24495694381806     -1.41210247895271
  H           1.21312019555428      0.60854530748780      0.45307403942977
  C           0.82675042715853     -1.63761047474234      1.72470378720255
  C           3.63291103876729     -2.77775642220844     -3.32219163768323
  C           3.30406505056389     -2.75902160300762     -2.03459248212536
  C           1.90850340180505     -2.86078916179059     -1.50791132846052
  O           1.82194595318054     -2.64952679132078     -0.11978035003750
  N           5.00226453172353     -2.71528105657531     -3.73903470727984
  H           2.93492879094018     -2.83692904945454     -4.14309302668334
  H           4.09204781501829     -2.70843421875451     -1.29138623222575
  H           1.56584917377044     -3.89423875369755     -1.66182022088114
  H           1.22863960703797     -2.19808874336019     -2.05485531212384
  H           3.03506845721421     -0.45385004375201     -1.75203420330190
  H           2.75278266068223      1.20796853155522     -1.24251587494349
  H           1.54160944436176      0.38104488874471     -2.20782184722930
  F           0.61599393589118     -0.47070495716488      2.40243517545255
  H           1.47907974545762     -2.26589592106879      2.34085880713529
  H          -0.14812135140201     -2.12741738121940      1.61248011502817
  O           5.85953162000955     -2.61969028351557     -2.88824083345959
  O           5.20541785554746     -2.76064580602689     -4.93309366519583
