20
Coordinates from ORCA-job NEB E -49.813196924410
  C           0.24987473533799      1.02908818726048     -0.30733820099647
  C           0.90317068147682     -0.24080822618903     -0.22516356023535
  C           0.11064447581532      1.69266024502530     -1.57297334329706
  H           0.46128413029994      1.68650361248828      0.52984175989941
  C           2.42973479397677     -0.41725139150123     -0.37080832575923
  C          -2.11749019078774     -0.10806778650090      2.00819630812631
  C          -1.45840297903834     -1.17577353046860      1.60192211422462
  C          -1.10174931713419     -1.41332119579904      0.16092331073158
  O           0.32349853506247     -1.37040493719520     -0.00129262166334
  H          -2.36108003628973      0.04048888132984      3.04575667927649
  H          -2.44821949585156      0.65113884457720      1.31936313811741
  H          -1.11456348931223     -1.93122951641385      2.29357937294257
  H          -1.55796792537031     -0.65278182592879     -0.47823612884532
  H          -1.38479423430699     -2.42072483928424     -0.15352925828990
  Cl         -0.42629321027993      0.56765569011614     -2.83829152330576
  Cl         -0.98628364730287      3.05991493629173     -1.47930532752622
  Cl          1.74093862898277      2.43772021882298     -2.28930453621927
  F           3.08652886021651      0.64136928976168      0.09957338496683
  F           2.86822619229045     -1.48772659966344      0.30420724885474
  F           2.78294349221482     -0.58845005672932     -1.64712049100204
