20
Coordinates from ORCA-job NEB_product E -49.903977034090
  C           1.42297151142572     -0.43125487785489      1.52780050159623
  C           2.64011194962603     -1.26820226426752      1.87538891866903
  C           1.27526666494340      0.03465599579125      0.07567075459983
  H           1.57062947222759      0.48622550454748      2.11280008276351
  C           3.15986297052458     -2.42265328826266      0.96238067316612
  C           0.14650648506377     -1.11175156120369      2.09258271169103
  C           0.00524926747259     -2.56772058593449      1.76760125253207
  C          -1.02276982627363     -3.08384077738044      1.12236317693562
  O           3.23094900107006     -1.10381418423406      2.90300266920454
  H           0.18838418157324     -1.00771957743562      3.18007232101600
  H          -0.71859491382195     -0.55724741552588      1.72652648762777
  H           0.78556519213907     -3.21058305362983      2.15268201667450
  H          -1.82085411981013     -2.46815992833163      0.74188727102750
  H          -1.10493125999686     -4.14100178161604      0.94280644389263
  Cl          0.37723468879829     -1.05029792042159     -0.99220135625599
  Cl          0.39012648624522      1.58934295799479      0.09496747017442
  Cl          2.89861819640783      0.33790272110039     -0.61542134977917
  F           4.38171752562846     -2.12735973410420      0.50780057154036
  F           3.27128915611056     -3.53646159317398      1.69896403599103
  F           2.40926737064615     -2.73615863605738     -0.09027465306702
