20
Coordinates from ORCA-job NEB_reactant E -49.904419206750
  C           1.35976345039395     -0.59766543892504     -0.02684917726859
  C           1.96183793110806     -1.47770600218160      0.78407688873833
  C           1.95387132120817      0.22204842599132     -1.11316879488289
  H           0.29421114126820     -0.46117667641169      0.07620353196144
  C           3.44931049837767     -1.81970110138184      0.79052184194304
  C          -1.15248633074068     -2.62073711756265      4.12743512284560
  C          -0.38859875911979     -2.96760689416885      3.11032108935961
  C          -0.02666374215930     -2.04802729159987      1.98353169624017
  O           1.37044590569707     -2.18952402029239      1.74896245118337
  H          -1.40279982305745     -3.31763064698209      4.90741130902948
  H          -1.56844321241478     -1.63072271028956      4.21713553655762
  H           0.03222403709628     -3.95872308276191      3.02887268953916
  H          -0.26308171816687     -1.00709786425987      2.23409177933369
  H          -0.57639861378367     -2.33456637199428      1.07504812184913
  Cl          2.24191565982655     -0.77415055805601     -2.57771213790039
  Cl          0.79688416843539      1.49987245151042     -1.56077725620368
  Cl          3.47658250570284      1.01881108127378     -0.65150519271660
  F           4.15626260701784     -0.94380701822222      1.51698649782966
  F           3.65613580282516     -3.02111897393869      1.33384842528282
  F           3.99562717048536     -1.85807018974696     -0.42593442272096
