73
Coordinates from ORCA-job A2R E -117.435801306420
  Ru         -0.00613037376716      2.05238054130771      0.03784698749879
  H          -0.39505966282761      0.56345632935639      0.18137060958947
  N           1.22540100947513      1.43800599611669     -1.53669079585646
  C           0.73898395125387      1.37225491386234     -2.78770267780730
  C           2.54473530765167      1.25200429957066     -1.35719768031327
  C           1.57355450171251      1.27519080922887     -3.89192239005025
  C           3.42870779733197      1.14137011991646     -2.41981720390394
  C           2.94370062575565      1.19738103639806     -3.71405851646115
  H           1.14395120130098      1.26190208129880     -4.88159585101770
  H           4.48222027051546      1.02014275489983     -2.22533710572689
  H           3.61291524815298      1.14949406562230     -4.55812328446456
  P          -1.57593283048489      2.30779447125240     -1.63481774984468
  C          -3.29184099183379      1.50088383131122     -1.53521916934278
  C          -1.71221035668131      4.01577763081778     -2.46767880779971
  P           1.86126126003758      1.91347419922765      1.16094129475923
  C           2.79654098694399      3.54357738846763      1.49618966359189
  C           2.20008854131937      0.97951110778407      2.78006119262642
  C          -0.74679044971077      1.31332832423404     -2.95263875409148
  H          -1.04260536747122      0.27228551823901     -2.76555762604320
  H          -1.05668844407188      1.58812192705659     -3.96356847618546
  C           3.04316067919159      1.07418726843454      0.04764201938478
  H           2.97693508467858     -0.00777221756807      0.26572367899403
  H           4.08920406882986      1.38419925262641      0.16843002113525
  C          -1.11363029221617      2.56357879925455      1.42835209432276
  O          -1.80111213438696      2.85555870480577      2.30381291680353
  H           0.37241840201725      3.50456201157545     -0.27839061739751
  C          -3.88315188415524      1.07117335526286     -2.87837020805980
  C          -3.13978540853000      0.25038577463403     -0.66615216574069
  C          -4.23079350360034      2.46083146556440     -0.80281456995254
  H          -3.26538523372086      0.31609830403160     -3.35978209326584
  H          -4.86336974049378      0.62997945666508     -2.69854763659938
  H          -4.01813774225546      1.89999213461972     -3.56306005374910
  H          -2.83082262963507      0.51851929939277      0.34272346912621
  H          -4.09420916884095     -0.27149423263960     -0.60570157727150
  H          -2.40182716240772     -0.43678363505543     -1.07639488011768
  H          -3.73368321187460      2.86702532057244      0.07971509764817
  H          -4.55384062017288      3.28144900300342     -1.43802777609986
  H          -5.12090052404402      1.92691181284610     -0.47202266734306
  C          -0.32751917667827      4.34904538321362     -3.03512582142221
  C          -2.71660830977102      4.11163499170184     -3.61482334408370
  C          -2.06335607128784      5.03975865227211     -1.38673948217782
  H          -0.10728484776743      3.77448292916249     -3.93296415951765
  H          -0.28674447665160      5.40502880660344     -3.29735975814206
  H           0.45730656067286      4.16738939881599     -2.30284720953821
  H          -3.74254686433038      4.02924244702979     -3.26847599922654
  H          -2.60933838865786      5.08917428306094     -4.08468261913902
  H          -2.53168389296110      3.35894488927584     -4.37902065287567
  H          -3.08640438822455      4.92663959476838     -1.03967818707037
  H          -1.39772557348775      4.93160872392171     -0.53130438855319
  H          -1.94961494190603      6.04921811249836     -1.77914912607383
  Br          1.78992922112351      2.10894956455329      4.30799525258965
  Br          0.94445760599149     -0.48462199510334      2.82054378945017
  Br          3.97201825260474      0.18461404511850      3.00534466610515
  Br          1.57361208876146      4.83645572154520      2.27564512474066
  Br          4.43074905337061      3.50427869482123      2.56042816830469
  Br          3.30555381635750      4.22371709234475     -0.25570507672172
  C           1.45901962549334     -2.54243449330914     -0.00808226111596
  O           2.48788552862516     -1.93204559903821      0.19984160341333
  C           0.72288353835028     -2.38432316063064     -1.28769230347574
  C          -0.64494796746001     -2.62317632321008     -1.39928717071658
  C          -1.27408540085297     -2.48241337335089     -2.62302993680933
  C          -0.54664126913771     -2.12131253961089     -3.74738489634058
  C           0.81410603665760     -1.88070246851697     -3.64364895590054
  C           1.44140329728742     -1.99818066356576     -2.41826935113953
  C           0.88588027240478     -3.50755271521868      0.98740218349299
  H          -1.22156686897083     -2.89805792134591     -0.52995979832391
  H          -2.33635459365222     -2.66341912144476     -2.70390296976933
  H          -1.04082058970488     -2.03083709082826     -4.70410269903403
  H           1.38527336375361     -1.60656392987267     -4.51808763229887
  H           2.50235359904377     -1.81633612125126     -2.32290406651243
  H           0.57647562485330     -4.42783334602287      0.49872157943458
  H           0.01794685459695     -3.05316379232510      1.46377395430511
  H           1.62281807856832     -3.71624790005654      1.75831283316776
