73
Coordinates from ORCA-job A2S E -117.440089863620
  Ru         -0.50336530126301      2.22880722605048      0.31574505213864
  H          -1.21163648098221      0.87412163553079      0.50462803407125
  N           1.00221661477972      1.17103018507962     -0.69074367579330
  C           0.90374573528055      0.95864209136017     -2.01379756533375
  C           2.15884609538051      0.86226841043255     -0.08113614206241
  C           2.00440375376704      0.58071915502313     -2.77315554170406
  C           3.29509820502701      0.49769699619505     -0.78392467839442
  C           3.23085073960519      0.39343893957982     -2.16302381845381
  H           1.89110728619858      0.44131250358599     -3.83690133096275
  H           4.21262542710631      0.30461908252025     -0.25193489743006
  H           4.10625897952660      0.14037610482442     -2.73938770568976
  P          -1.42909063040482      2.38767448696969     -1.80699667408458
  C          -3.21886201708033      1.87297074736261     -2.16356946680119
  C          -0.97179785141949      3.91896800412081     -2.84539262112480
  P           0.87447058016839      2.01457298441442      1.98706279679454
  C           1.95134053725626      3.51732985893453      2.45414302635072
  C           0.53882896119104      1.28969435456432      3.71769164200536
  C          -0.45163291198747      1.05899378260936     -2.63060946490297
  H          -0.96803160706792      0.11811058024256     -2.38974716018594
  H          -0.40308252310093      1.16703831204263     -3.71638222877102
  C           2.16510204933002      0.84031103152211      1.42204511100359
  H           1.83882090365076     -0.16727617243146      1.73043014974344
  H           3.16330943218610      1.01877154023354      1.84185960256135
  C          -1.85241445695995      3.14993640434334      1.18396826332131
  O          -2.69519082952828      3.70580504351898      1.73559246598672
  H           0.23221695826995      3.52678106818317     -0.04834042508260
  C          -3.44582710487379      1.28977166265643     -3.55856852420151
  C          -3.57828063246633      0.78941615415055     -1.14544541625370
  C          -4.12920419748836      3.07545670225398     -1.90846241850338
  H          -2.88362216299263      0.36872610883884     -3.69290792189755
  H          -4.50324883622041      1.04758535628404     -3.66180525969426
  H          -3.18892288510087      1.97881051125588     -4.35443536631500
  H          -3.52258814702706      1.17710056498815     -0.12948309195320
  H          -4.59597465405541      0.44498283321085     -1.32552202350153
  H          -2.91245236734209     -0.06608968605587     -1.22818567920593
  H          -3.85669984589762      3.55854061042611     -0.96850710454428
  H          -4.07806156585307      3.80619362093895     -2.71154201213911
  H          -5.16373932153970      2.74349231975282     -1.82815098092113
  C           0.55580180593470      3.94214986463721     -2.97155203925835
  C          -1.55015934695631      3.94695365466714     -4.25911178452140
  C          -1.42427715532340      5.16267449116048     -2.07809305478630
  H           0.91627349386542      3.18581692164313     -3.66626079581764
  H           0.87493179151810      4.91462893829982     -3.34333757517767
  H           1.03859094631261      3.79034073951748     -2.00753215636949
  H          -2.62886962802798      4.07176525009817     -4.25762426732181
  H          -1.12446035151731      4.79928359757750     -4.78876134174929
  H          -1.29109028622281      3.05038397891277     -4.81904524100854
  H          -2.50611144748136      5.25883695998511     -2.06700735218319
  H          -1.07414077084750      5.12149121673185     -1.04746585873299
  H          -1.01049520376657      6.05739462344598     -2.54118410307138
  Br         -0.88441016557471      0.00219211931233      3.47883162783301
  Br          1.99496142145541      0.30203189579530      4.59361931551827
  Br         -0.13161150761350      2.66781002891131      4.90842602764681
  Br          0.79874925339786      5.07006389969039      2.65063145737465
  Br          3.13699214404543      3.41711048243510      4.00269244628985
  Br          3.09643922392505      3.83618019215940      0.91164605356484
  C          -1.08741295422721     -2.16348579859790     -0.39407032009336
  O          -1.21048435103335     -1.77181483862441     -1.53920322244124
  C           0.25691898788699     -2.38299053359233      0.19476234516826
  C           0.45803273817842     -2.63194516941199      1.55227962354925
  C           1.73988404296498     -2.79972259801889      2.04545780603229
  C           2.83169356287725     -2.75100296524187      1.19133301580829
  C           2.63971128728992     -2.52889321545814     -0.16316312634599
  C           1.36317690598772     -2.33604854865389     -0.65464132514950
  C          -2.27738056080198     -2.44128360913801      0.47832948335220
  H          -0.37792300261853     -2.68162941407338      2.23095383440732
  H           1.88882366185953     -2.97245302340484      3.10108300372031
  H           3.82819365239333     -2.89152612791165      1.58281349988779
  H           3.48504857801491     -2.50879014523992     -0.83486756120797
  H           1.19755119221922     -2.15694190692141     -1.70738535124274
  H          -3.18588455261103     -2.39972549088624     -0.11728210904781
  H          -2.33335377390950     -1.68072126436598      1.25690984477260
  H          -2.19182555966649     -3.41533532095302      0.95251225253217
