73
Coordinates from ORCA-job A3R E -117.429400218990
  Ru          1.85302851143649      4.42752005357808      0.22147085480466
  H          -2.62341538303114      1.78478269817876     -1.98132651105749
  N           1.40078187258980      3.08756602142316     -1.38056459789291
  C           0.49613284064805      3.42285727612049     -2.30669701170710
  C           2.10037740816142      1.92972584260316     -1.52539942725569
  C           0.31209228625063      2.68609541622972     -3.46197437120189
  C           1.95180969188965      1.14796430082226     -2.68707358347314
  C           1.07486609280227      1.53864144549604     -3.66324432910986
  H          -0.42522645258656      2.99240626964821     -4.18644087778456
  H           2.53438690657809      0.24609951903917     -2.78222040078168
  H           0.95426290460312      0.95448399928993     -4.56210302764636
  P           0.55891503578441      5.87030080711799     -1.05880410093666
  C          -0.81712984149715      6.91752506724894     -0.28269882093956
  C           1.47312030638977      6.84844311074413     -2.40009473991838
  P           2.95785819125115      2.59081444494494      0.84780444175873
  C           4.55230810313257      2.30522134898874      1.76634308489633
  C           1.64823368673465      1.87971145800677      2.19400849658688
  C          -0.38198380061219      4.60462996053326     -2.01432883977074
  H          -1.18553289437881      4.24836629106980     -1.35543355299418
  H          -0.82869442283779      5.01070413500860     -2.92478892256426
  C           2.96862689256147      1.52797357185131     -0.48024841487948
  H          -0.67471191932688      0.93828200467387     -0.15941095167905
  H           3.51431454029561      0.59675641520525     -0.51794030229130
  C           2.28599210653491      5.60480527420111      1.58217757806827
  O           2.55783319639827      6.33306243656200      2.42602611964165
  H           3.08784878222807      4.87807305332976     -0.53805465238651
  C          -2.02067388005147      7.14707198928250     -1.19618793492027
  C          -1.29047363990301      6.15198262190371      0.95590585606770
  C          -0.22739743503339      8.24597824860460      0.19122055187470
  H          -2.52444516072784      6.21197162417416     -1.42874576221675
  H          -2.73426567793778      7.78630582028253     -0.67747427068369
  H          -1.75045563628382      7.63850211080615     -2.12406293771121
  H          -0.48479009917358      6.06526095357096      1.68562393240921
  H          -2.11159784221529      6.68784188342609      1.42928046289385
  H          -1.65004585972782      5.15310585832167      0.70645378476593
  H           0.70959001444279      8.07524961224955      0.72209522365429
  H          -0.04795518272435      8.92697497344238     -0.63602820662042
  H          -0.92045719507369      8.73199867414856      0.87662391466769
  C           2.19439802886019      5.82078399609651     -3.27889141946505
  C           0.58094844343212      7.70293053193142     -3.29849997402925
  C           2.52561204513349      7.72310229824355     -1.71448701587921
  H           1.49753110713858      5.25126564468618     -3.89002146813408
  H           2.88243924652188      6.33546790933661     -3.94758060355699
  H           2.77872320861151      5.12944087964316     -2.67081641281419
  H           0.13995616443693      8.53731368166411     -2.76066345847420
  H           1.19030294795091      8.11718695518513     -4.10104231242953
  H          -0.20949728110479      7.11242406631530     -3.75797572359791
  H           2.07925514097211      8.56625792857448     -1.19667320541278
  H           3.09304429028866      7.13221466751438     -0.99370275553816
  H           3.21964894489360      8.11431677005376     -2.45626362466703
  Br          1.84503424337015      1.97398682353444      4.13216861331900
  Br          0.16165207352252      3.12797870390902      1.64957972722066
  Br          1.08965557197644      0.07279459268935      1.73040210748863
  Br          4.75198164964645      3.57411007357289      3.22301103828250
  Br          4.69523296287667      0.48193757346812      2.41423071346387
  Br          5.95195795894194      2.66008663891015      0.47109244107344
  C          -2.12136036267316      0.97515104528303     -1.43866575270424
  O          -1.12195266350497      1.62085840110513     -0.67577589422152
  C          -1.53547889667265     -0.00565771470254     -2.43069589346713
  C          -1.95400172577295      0.00165916470438     -3.75427458057474
  C          -1.43437294693695     -0.90295425622011     -4.66291509359065
  C          -0.48348316387888     -1.82398013021781     -4.25791719652620
  C          -0.06256938883077     -1.83988015600900     -2.93960193677763
  C          -0.58780292724691     -0.93945187170329     -2.03028803263812
  C          -3.13080298658834      0.26422925208809     -0.53213462951133
  H          -2.69436426077512      0.72161776755896     -4.07410421261361
  H          -1.77011502371815     -0.88661753644161     -5.68968584910106
  H          -0.07336187438367     -2.52791256021114     -4.96683836421268
  H           0.67491545978772     -2.55823459686697     -2.61389094000839
  H          -0.24922832744297     -0.97528654017696     -1.00331803584472
  H          -2.64215777555791     -0.54521331150871      0.00715646163928
  H          -3.93859175097540     -0.15156103748293     -1.12790013585517
  H          -3.54237517988886      0.96710775334463      0.18869566549144
