73
Coordinates from ORCA-job A3S E -117.422880338710
  Ru          1.81701047802184      4.68476876217235      0.12850726438992
  H          -0.63338866897904      1.29665137221818     -0.61464760424962
  N           1.66704883535379      2.99987270736842     -1.17379362278602
  C           0.89121402405716      3.04655856143616     -2.26594413458312
  C           2.41284934884306      1.88524272839264     -0.93596700020705
  C           0.88224711735613      2.03837680567462     -3.21015001751945
  C           2.44756768089286      0.83810454305356     -1.87905454322060
  C           1.69706093705422      0.92239314142433     -3.01940300817290
  H           0.24168598531797      2.11634595164603     -4.07423924927492
  H           3.06039430783988     -0.02332623300212     -1.67186722114183
  H           1.71260816923469      0.12859373108569     -3.74929419553165
  P           0.67643524025054      5.71276268900729     -1.61053563247157
  C          -0.84528806533646      6.79115815399308     -1.27805931585504
  C           1.74436497123756      6.44868442969663     -2.99020199106438
  P           2.91776586732049      3.13782408618533      1.30260088163188
  C           4.40764242513673      3.21765869944781      2.41760758193896
  C           1.49742948540959      2.65562431250784      2.62319975428585
  C          -0.05224490486375      4.21020954593579     -2.39773912744690
  H          -0.96290703317003      3.97005726063231     -1.83163087244041
  H          -0.33420882820533      4.37989246444155     -3.43950430923515
  C           3.13249630739917      1.79392454721466      0.28007101539556
  H           0.59406568476506     -0.58545791572154      0.22869121251762
  H           3.71067846700243      0.91819454268794      0.53528280236609
  C           1.95397426444879      6.14783365863077      1.25534476904062
  O           2.02834684090560      7.04886247324787      1.96058943626932
  H           3.12893244939336      5.07619395945582     -0.52602400520936
  C          -1.90366244859874      6.74918718938309     -2.37965613909303
  C          -1.46776076378058      6.25881351714102      0.01591841200031
  C          -0.38573809623286      8.22546477090842     -1.01683387462075
  H          -2.32635566141532      5.75327190752132     -2.48873421724706
  H          -2.71508688234747      7.42334125419964     -2.10802866446221
  H          -1.51517629832676      7.06973464676385     -3.33972134929042
  H          -0.77549549127146      6.37147386549239      0.85097293409707
  H          -2.36884012834360      6.82239909107309      0.25120886354355
  H          -1.74875861794749      5.20805842695314     -0.06572854608178
  H           0.46858209932609      8.23092887617632     -0.33926828237707
  H          -0.11284472042796      8.73500349947338     -1.93672594659381
  H          -1.19125286589921      8.79084546401572     -0.55042606591102
  C           2.63337792025804      5.31153239704768     -3.50557301108276
  C           0.96505268292913      7.02435304946182     -4.17103618470419
  C           2.64091506727864      7.52553721942376     -2.37455913941449
  H           2.06362472610585      4.57483967383426     -4.06788238146270
  H           3.39603673425106      5.71938771073392     -4.16669560463498
  H           3.14310818499568      4.81177978083947     -2.68098812216986
  H           0.41773920099954      7.92212501510694     -3.89805057702512
  H           1.67181181168873      7.29786010877655     -4.95361439064197
  H           0.27458479904378      6.29612700785820     -4.59234207690686
  H           2.08516458376327      8.42482928260905     -2.12807576355194
  H           3.11331902989985      7.14790188868741     -1.46636243984556
  H           3.42488541555656      7.79821120060813     -3.07867795087439
  Br          0.01678542893009      3.50171284478627      1.53846695630479
  Br          1.17338386836030      0.73860425031632      2.69146221538465
  Br          1.38250047609990      3.37229838199648      4.42965110607217
  Br          4.37673019200564      4.82362938669340      3.50891110938286
  Br          4.58734394071694      1.63765304736470      3.53040155259427
  Br          5.91740336234464      3.35511194916217      1.20704219563025
  C          -0.99286575525466      0.25245929528113     -0.53141249619433
  O           0.10759881335497     -0.62530009758349     -0.60305879469976
  C          -1.77697036701597      0.12326313962403      0.75533340299861
  C          -2.55275882990705      1.18358884189026      1.20576788146333
  C          -3.26315831838415      1.08064438959753      2.38737298086118
  C          -3.20989292898743     -0.08759190297574      3.12906210887307
  C          -2.45338756945940     -1.15442115838645      2.67706056427344
  C          -1.74212483869220     -1.05058573765439      1.49484720693093
  C          -1.89314292281370     -0.04767681534698     -1.73004474662934
  H          -2.59487903196097      2.09829646380978      0.62987657576706
  H          -3.85346871042904      1.91676049164540      2.73214909395216
  H          -3.75768454158387     -0.16494044612197      4.05632392480654
  H          -2.41200762967306     -2.07025392501495      3.24748302883584
  H          -1.15258792117608     -1.88379442016006      1.14097290318311
  H          -1.31983242268250      0.05139110293021     -2.64785907636994
  H          -2.73685522834188      0.63664958706934     -1.74811131411711
  H          -2.25955073364165     -1.06763049184454     -1.65485672837857
