73
Coordinates from ORCA-job TSA2R_3R E -117.370328102230
  Ru          0.32792590717740      1.76464903250450      1.28587283798241
  H           0.51143308800816     -1.73281736828377      0.27910610709660
  N           1.36791092409318      0.62417125508180     -0.17891222533038
  C           0.77413979712150      0.21401019214734     -1.29725177719526
  C           2.64124383910474      0.20963528412551      0.07250676016735
  C           1.41545205236244     -0.57109141213671     -2.24372275520857
  C           3.32639643836502     -0.61093472708545     -0.84621417161598
  C           2.71759927626559     -0.98697927407100     -2.01547052777708
  H           0.88267214507779     -0.87879212917961     -3.12937258354659
  H           4.33923275010301     -0.90975785324819     -0.61385681645391
  H           3.23021228935760     -1.60129690061851     -2.74156572790441
  P          -1.43533335597190      1.53506996600930     -0.21410445442458
  C          -2.96142943339360      0.46733042099124      0.15685910358528
  C          -1.96199032881646      3.15981386338841     -1.04993769605148
  P           2.30115950096173      1.54101137914766      2.29676398921753
  C           3.41822210709917      2.73936090412633      3.19927912020274
  C           1.79288546824887      0.34488984685953      3.75695185285997
  C          -0.65631730914626      0.57256680003562     -1.57957258544791
  H          -1.20902194008137     -0.35903478724115     -1.73793786098017
  H          -0.70236723540261      1.14660306452701     -2.50983783345184
  C           3.27921930919085      0.60288422268549      1.27149520086831
  H           2.98768258473693     -2.36117128328490      0.68133819742144
  H           4.30714651424605      0.34339251204884      1.48408062112547
  C          -0.53204324125002      2.80817605696067      2.54247021371361
  O          -1.04613916635830      3.44869037867947      3.34452127652472
  H           0.78620754869424      2.99537793871352      0.52873911947583
  C          -3.73801645162151      0.07893825494749     -1.11542426885922
  C          -2.44350507774328     -0.79881474765716      0.85512795332481
  C          -3.85785969038040      1.22080628069539      1.14191324605229
  H          -3.78486138223002     -1.00245746709647     -1.22379686876018
  H          -4.76061609488970      0.44573740354773     -1.06387322648075
  H          -3.28673494952174      0.47312618060745     -2.02079607017164
  H          -2.38597862020758     -0.64781203091106      1.93275878351592
  H          -3.11753533266306     -1.63696656341793      0.68571735661260
  H          -1.45636985400647     -1.08881684429380      0.49435781168448
  H          -3.26815992790230      1.58833655172797      1.98404198345512
  H          -4.35544460155120      2.06678303273153      0.67339131410478
  H          -4.62352219687804      0.55028586092148      1.53090956346919
  C          -0.78567846969074      3.65247964952549     -1.90384800589810
  C          -3.20567827622420      3.09392657935317     -1.93449891601083
  C          -2.19426792209065      4.17017666922934      0.07721008569580
  H          -0.79637824643897      3.22126255363285     -2.90315531287728
  H          -0.84610227628809      4.73358318765576     -2.01287467982041
  H           0.16880379084726      3.42107112978566     -1.42737806830252
  H          -4.08521848248601      2.77785391466910     -1.38239658684365
  H          -3.40091479847019      4.09116834861235     -2.32823742006631
  H          -3.06290624703440      2.43007090915239     -2.78463418295592
  H          -2.93012813407690      3.81458220915826      0.79470224580474
  H          -1.25912866010847      4.35896605241227      0.60465690083514
  H          -2.54909156346209      5.11369409178189     -0.33494503817055
  Br          1.28894368802156      1.00230499800175      5.51893312648619
  Br          0.13988627130527     -0.27604807382454      2.82913484288472
  Br          2.95820069518369     -1.18073282251728      3.98335494803779
  Br          2.39926555623056      4.00850886800881      4.25722812574114
  Br          4.74671116331110      1.85302068480843      4.29773856147151
  Br          4.29468332532745      3.72727688047521      1.77558416406845
  C           1.33140590118776     -3.25257393500677      0.85257352205195
  O           2.38004229835397     -2.70615653342937      1.36334203929811
  C           1.37544352833581     -3.81693824397931     -0.50171252774885
  C           0.19931188596337     -4.14729333829029     -1.17346687019027
  C           0.25041536957484     -4.63138589384600     -2.46405782175257
  C           1.47171698349375     -4.80730994310820     -3.09670691153078
  C           2.64507029091520     -4.48390706758827     -2.43708766603599
  C           2.59948084919198     -3.98214506005664     -1.15026039677813
  C           0.37397417936024     -3.79801759418071      1.85534441205814
  H          -0.74915118113771     -3.96417834322046     -0.69454730378718
  H          -0.66540701494592     -4.87751143201319     -2.98075259268810
  H           1.50835315824148     -5.18315364102166     -4.10802348251899
  H           3.59951895003942     -4.61802843044268     -2.92366197500400
  H           3.53068077584979     -3.75373787599293     -0.64830563428605
  H          -0.23556937001223     -4.59228421116214      1.43605425747339
  H          -0.27709359974833     -3.00499526392475      2.22083743919098
  H           0.95731023128201     -4.14845231734313      2.70730175936792
