24
Coordinates from ORCA-job NEB E -32.309979987600
  C           0.37565802928002      0.79293834821092     -0.36840812774284
  C          -0.58526013274798      0.65815722161471      0.61622912321762
  C          -0.00915478183390      0.76447423668148     -1.82912955922905
  H           1.17310384656281      1.48547640060503     -0.12875069518358
  O          -0.27698127524474      1.22507949386042      1.82485521815916
  C           1.20243380986198     -1.15043921170259     -0.09525513927570
  C           0.36822347730122     -1.80262052299549      0.77901818310642
  C          -1.02046468879862     -1.80332875931739      0.46162985879839
  O          -1.52587693213523     -0.22706229099277      0.57713524726766
  H           2.21986461723624     -0.94448686199367      0.20035630490946
  H           1.06161240616980     -1.32273634698861     -1.14799794726624
  H           0.63485416418081     -1.83342024538282      1.82862895029073
  H          -1.69851595760420     -2.28643060726217      1.15530131418187
  H          -1.27268624610868     -2.00582334806909     -0.57461810417374
  C           1.19298251030862      0.87978563396644     -2.75946069819298
  H          -0.66508523277502      1.62187601828908     -2.01511588714910
  H          -0.58960049296293     -0.13090601257210     -2.05848004343549
  H           1.73442915242564      1.80159694868666     -2.55965902661314
  H           0.86407252178807      0.89370587931029     -3.79619357305414
  H           1.88193929867310      0.04890734206620     -2.63093948930052
  C          -1.11164980997162      0.88995835271437      2.91492269457429
  H          -0.76843402810945      1.49715052610719      3.74961973009901
  H          -1.02880109042389     -0.16996065217162      3.16778675561952
  H          -2.15666316507208      1.11810845733552      2.68852491039239
