24
Coordinates from ORCA-job NEB_reactant E -32.339778432310
  C           2.31588658155310     -0.07844883810747      0.23783077150308
  C           1.96322338581104     -0.78533351369490      1.30889434978545
  C           1.93372478124437     -0.39450180130844     -1.17392572564882
  H           2.93737124441872      0.78795212808054      0.39922973760939
  O           2.40594147641025     -0.38944119727272      2.54345232311301
  C           4.03380164761108     -3.39247660903582      1.92331602958815
  C           2.73136503731978     -3.60394899901279      1.95781603827719
  C           1.79175213757443     -3.10973297760077      0.89594478232574
  O           1.14783848704996     -1.88732072447069      1.27244297264169
  H           4.68779050250398     -3.72131028872061      2.71292079649411
  H           4.50042798894682     -2.87654957089190      1.09987239473598
  H           2.27179387954749     -4.10998139227785      2.79649845282228
  H           0.96948008213816     -3.81313597052360      0.74259226687106
  H           2.33350274501970     -2.96720935199476     -0.04551094902837
  C           3.15202188394597     -0.76208482179410     -2.02294372737368
  H           1.45836064297477      0.48794514743434     -1.61152033486679
  H           1.20473369595766     -1.20589389298148     -1.18895073219512
  H           3.87027276402574      0.05445942048252     -2.02483925632657
  H           2.85352655616842     -0.96326190568823     -3.04937880123805
  H           3.64619408900929     -1.64761048978785     -1.62817967654675
  C           1.66702370118369     -0.83583075209119      3.66128234253052
  H           2.07553262095246     -0.29840739878481      4.51492726591915
  H           1.78468071556462     -1.91163837813340      3.81596383213191
  H           0.60445335306853     -0.60403782182401      3.54916484687545
