24
Coordinates from ORCA-job NEB_product E -32.383953143620
  C           2.80050362268148     -0.95762019680544      0.73053217018819
  C           1.83088410107935     -0.68382548088356      1.86409518389085
  C           2.07168621315542     -0.88909856654281     -0.61333614094990
  H           3.57464911681914     -0.18395271944301      0.77563302460936
  O           2.49078518360748     -0.44730672573171      3.00862409931254
  C           3.47882709364496     -2.32051755943528      0.97823534731817
  C           2.50768091929469     -3.45549711305521      0.90101025235046
  C           2.65713301388436     -4.51139329522931      0.12396849169942
  O           0.63167616481951     -0.67411892301897      1.78289052896325
  H           3.92807233477599     -2.29802030632445      1.97564960070930
  H           4.27940118845357     -2.46438847959940      0.25172009414727
  H           1.63808683670743     -3.36641141648859      1.53924763562253
  H           1.93893460915303     -5.31299916796015      0.10359054107105
  H           3.51200718067638     -4.62258749412995     -0.52377776805653
  C           3.01944164588816     -0.94397665769306     -1.80391566082309
  H           1.50120127518990      0.04138773312518     -0.64650694897953
  H           1.35797659660342     -1.71216523493919     -0.66965573546987
  H           3.77445644527463     -0.16360485456372     -1.73123218909977
  H           2.46496041804850     -0.79791400694709     -2.72750780709688
  H           3.51940853767138     -1.90696049453035     -1.86049900872538
  C           1.68836052980395     -0.20157474208126      4.15452291922312
  H           2.37597766507732      0.01465774982607      4.96798936865312
  H           1.08188769069242     -1.07900628507302      4.38847778814981
  H           1.02350161699752      0.64599423752429      3.97654421329252
