16
Coordinates from ORCA-job NEB E -29.079430795020
  C          -0.02831762899440      1.52387642408668      0.22576124948613
  C          -1.28525001868357      1.20201841269416     -0.20732428539799
  I           1.41578027646852      2.14415870673154     -1.19536879938115
  H           0.11550958868447      2.00051093440730      1.18217071190815
  Br         -2.57763454759833      1.14562275143254      1.35301946543921
  C           0.58230099790753     -0.59556434341866      0.62259207479040
  C           0.23499151135837     -1.08763456739056     -0.64157610656382
  C          -1.07808891742530     -1.22333601020651     -1.03161423515842
  O          -1.63775767944248      0.61536271673807     -1.22220499557694
  N           1.87418242538884     -0.51011913815973      1.01152168915793
  H          -0.13474359607977     -0.66397241457798      1.43144367439565
  H           1.01097802821969     -1.11229503242732     -1.39473186548905
  H          -1.84603388222940     -1.40838752254532     -0.29481246591584
  H          -1.31019803729985     -1.53856005422549     -2.03470890878455
  H           2.57398839741174     -0.39611792537416      0.29358265049624
  H           2.09029308231394     -0.09556293776457      1.90225014659407
