16
Coordinates from ORCA-job NEB_product E -29.107993766770
  C           2.89083086553643     -1.10116407221046      1.35318582240418
  C           1.48242115237815     -0.94312330821384      0.91903902197231
  I           4.14411290901769      0.00388011997239     -0.01748468484254
  H           3.04833821448407     -0.65664028464928      2.33707650073220
  Br          0.24431051290143     -1.50695505829797      2.35009087951720
  C           3.27904429755871     -2.59806681512029      1.43461208271955
  C           3.04701916406268     -3.28345744135902      0.11278032766350
  C           2.09839785803218     -4.17645122181738     -0.09400600507973
  O           1.03185233968739     -0.57212767056286     -0.10265216203336
  N           4.63440774625222     -2.69091150544305      1.93600405166929
  H           2.62493730478881     -3.04498746864533      2.19498327784220
  H           3.73162982623752     -3.00471538249486     -0.67848241390496
  H           1.41091767422048     -4.46861695586885      0.68391388007445
  H           1.96595653898014     -4.65196524806496     -1.05033672760360
  H           5.30454378898828     -2.40408677378485      1.22864028249181
  H           4.85177980687382     -3.64041091343939      2.21053586637749
