16
Coordinates from ORCA-job NEB_reactant E -29.097505129580
  C           2.21999091765242     -0.36431120853091      0.58001862100219
  C           1.40075450635332     -1.30557130396962      1.02394088839588
  I           3.39397540552653     -0.39626596065227     -1.16210406299242
  H           2.31395067266387      0.56196448460422      1.11603945003453
  Br          0.43546267634832     -0.87700341829477      2.63673785168726
  C           3.57075316622278     -3.44567499378000      1.69827109791069
  C           3.28318180609000     -3.47899450937789      0.39692857566943
  C           1.89138062629036     -3.35360590009300     -0.14233031798902
  O           1.03877828084777     -2.52563167162095      0.65401194443609
  N           4.83992070038258     -3.43377484667446      2.22350595327276
  H           2.78675093881678     -3.34122594948342      2.43769494112378
  H           4.06620399830738     -3.58377856578749     -0.33823249422964
  H           1.36636227407443     -4.31644282793923     -0.13321430204795
  H           1.90988549566133     -2.98890044417969     -1.17474814068146
  H           5.57727197803153     -3.70865110222543      1.59303211422498
  H           4.94447655673059     -3.77533178199510      3.16414788018291
