17
Coordinates from ORCA-job NEB E -36.660270613790
  C           0.79958816570438      0.82551625377524      0.66529364395175
  C          -0.50842589576165      0.35810576912282      0.86008170901537
  Cl          0.93002147064754      2.52675419555217      0.22405314848460
  H           1.54342679987881      0.58225123893777      1.41704466128400
  C          -0.75223535837070     -0.75854761733619      1.80724464790889
  C           1.34441356754182     -0.06195145868332     -0.95868566008986
  C           0.17083552892468     -0.49278487076301     -1.57386216138096
  C          -0.92501533808171      0.46024931546170     -1.55579775216289
  O          -1.39106399421397      0.43834508604063     -0.11587218113919
  H           2.06586813522391     -0.82303587704430     -0.68692059626650
  H           1.80055047824037      0.83664719852080     -1.34992545316348
  H          -0.09827511310522     -1.54002674858867     -1.53294383318183
  H          -1.82369920528863      0.17205990958568     -2.09434202316456
  H          -0.63417504495261      1.48759886532587     -1.77942529335976
  Br         -0.09570592598121     -0.36376226549538      3.58070439978343
  Br         -2.62936498233590     -1.17709165161709      1.88391521298115
  Br          0.20325671193012     -2.47032734279473      1.20943753049983
