17
Coordinates from ORCA-job NEB_reactant E -36.693435728450
  C           1.82471168814723     -0.23736486137222     -0.03669669673537
  C           1.73198258345643     -1.53018115393664     -0.35062854188742
  Cl          2.24738936914971      1.06228222840555     -1.08738101939116
  H           1.62942371407679      0.10163792721795      0.96713610975752
  C           1.37387425650417     -2.56914849455008      0.67173965870527
  C           3.37166124566034     -2.72261237720975     -4.61657894457823
  C           2.36707060394907     -2.60116761871821     -3.77154666512807
  C           2.28931598516475     -1.54448178844047     -2.71256916114785
  O           1.92419719053518     -2.20074587336298     -1.50274173112591
  H           3.38211945280354     -3.48536610900670     -5.37495909046668
  H           4.21916816686492     -2.05734504823319     -4.59323011271684
  H           1.52314321433084     -3.27568451810047     -3.79427654916876
  H           1.51844540038725     -0.80923490358330     -2.97636979395282
  H           3.25182176176187     -1.03768253610486     -2.59381538572437
  Br          0.89305943148479     -1.91792576790366      2.41453575115363
  Br         -0.12168751496037     -3.61535979248921     -0.01323804395108
  Br          2.90470345068347     -3.77511931261176      0.87232021635814
