17
Coordinates from ORCA-job NEB_product E -36.703782028100
  C           2.58254537935904     -1.65203929052945     -1.13068584916143
  C           1.37449124373630     -2.40940888888496     -0.64613619531691
  Cl          2.01817045980548      0.05579795118687     -0.99311517531665
  H           3.43226888808383     -1.75660543018693     -0.45171693629732
  C           1.45157294045282     -2.88131556235268      0.80366193383743
  C           3.00387439413624     -1.97730295458310     -2.56485130589868
  C           1.97138494756059     -1.60433166803553     -3.58680952034726
  C           2.13476574062873     -0.62374530719885     -4.45358576565282
  O           0.40672064223566     -2.67658864287459     -1.29414280540017
  H           3.20578904686637     -3.05203004750684     -2.61063390310423
  H           3.93272764811821     -1.44087414542204     -2.76828952817799
  H           1.05872199644003     -2.18111130524292     -3.56825318738487
  H           1.37608309138624     -0.37278397764924     -5.17398499146695
  H           3.03628952447842     -0.03295978727224     -4.48335979188890
  Br          2.06956519567594     -1.54167252206926      2.05110595698962
  Br         -0.25844345278884     -3.56800247738842      1.36786251255842
  Br          2.75207231382493     -4.34942594398982      0.73663455202872
