19
Coordinates from ORCA-job NEB E -44.994665480420
  C           0.74574922040087     -0.01934081997515      0.91070303831853
  C           0.16973670724192     -1.09499411007404      0.20077691249329
  N           0.15369503649737      0.49881354121160      2.04189355728799
  H           1.73538018288104      0.33520707009707      0.69246600505052
  C           0.39427487316628     -2.56139117359959      0.64718420351946
  C          -0.04868458450333      2.49330905944499     -1.20582568853857
  C           0.02489585396102      1.21302273830370     -1.51937692185457
  C          -1.08802111333007      0.23521585340490     -1.28945528934828
  O          -0.65495172963777     -1.03309871268181     -0.78094490281329
  H           0.75532809970798      3.17175259029442     -1.42736485017102
  H          -0.90804100724712      2.91126949458707     -0.70988403009063
  H           0.89101795661404      0.80266535596424     -2.02064882294452
  H          -1.59357794724211     -0.01609824952728     -2.22735574363494
  H          -1.81847424142979      0.64229993167520     -0.58138549859433
  O           0.76592891011545      1.35935206063474      2.65876947660058
  O          -0.98375997369131      0.12090343162552      2.31824195360143
  F           1.33811783419514     -3.11699861652208     -0.13442623938973
  F           0.82255605357484     -2.63446168813663      1.89838643517180
  F          -0.70117013127445     -3.30742775672689      0.52824640533628
