19
Coordinates from ORCA-job NEB_reactant E -45.072347907590
  C           2.06792707095273      0.41165416609670     -0.41746009621249
  C           1.61535889248608     -0.41373504867056     -1.38042030783219
  N           1.60423719073871      1.72247210200238     -0.11186359833204
  H           2.87418322612416      0.08911914733278      0.22456830699776
  C           2.20836414300507     -1.82679360639633     -1.43022182042350
  C           1.66819913204041      3.16154084443331     -2.93653101725320
  C           1.58472921062559      1.87587259978906     -3.22056231229237
  C           0.39875717533777      1.02144976809998     -2.88156685769149
  O           0.79035113051431     -0.26776348982744     -2.40044852485444
  H           2.52497044289827      3.74778699538729     -3.21790680288913
  H           0.88004523640062      3.67848780687402     -2.41433213169463
  H           2.38253173339137      1.35767965167706     -3.73687619453211
  H          -0.17568322247500      0.78533268722255     -3.78254124411985
  H          -0.24857676518133      1.52534948463867     -2.15428763677454
  O           2.41859057552814      2.49531671754780      0.34025296047726
  O           0.42438483762207      1.96860694811086     -0.27170401188540
  F           3.13721107945223     -1.91320207617320     -2.39240518827609
  F           2.80087294159335     -2.18145097388914     -0.28784313618563
  F           1.27854596894544     -2.74092372425581     -1.69545038622592
