19
Coordinates from ORCA-job NEB_product E -45.071758059880
  C           2.06573080406872      1.14768949200327     -0.98020000962029
  C           1.23661778180798     -0.11833695939532     -0.97305312105952
  N           1.99825893992392      1.75090243524400      0.40216131393882
  H           3.11859863664201      0.94257727181460     -1.19391374623911
  C           2.04361786614118     -1.37445685022154     -1.42532441206799
  C           1.44340529745243      2.13971731856674     -1.98194230261567
  C           1.43274508949109      1.56336991954704     -3.36691123367479
  C           0.32917478068295      1.24086064099268     -4.01326605150322
  O           0.09117818833885     -0.19707635949827     -0.65830157925831
  H           2.03226467901598      3.06032790349936     -1.96651015538950
  H           0.42575615610405      2.35938395181768     -1.65247199426125
  H           2.40382940181494      1.41204051427964     -3.81760862771377
  H           0.35591532473002      0.82987346179270     -5.00691009930215
  H          -0.64618211915569      1.38158485722068     -3.57722969810193
  O           3.01841207680793      1.71182007427077      1.03362930112524
  O           0.94815571837330      2.20870332268580      0.74737137500732
  F           2.67033140611949     -1.15373510240488     -2.59039745136223
  F           2.99196891534706     -1.66244030559887     -0.52324957614077
  F           1.27302105629380     -2.44240558661610     -1.57207193176087
