22
Coordinates from ORCA-job NEB E -49.090225192550
  C           0.29526489854680     -0.86768242482309     -0.68972756959718
  C          -1.05228360788502     -0.43347078547327     -0.87578772942501
  N           0.49648874287135     -2.04771944220282     -0.02064597824376
  H           0.99621832443540     -0.69846771354448     -1.50042762172193
  C          -1.39513009399417      0.39482865215688     -2.10326103346535
  C           0.74541803994051      0.64402668165315      0.53799771208436
  C          -0.17663312313475      0.48447427779237      1.58168730087016
  C          -1.52140970242816      0.75405924805242      1.35251083313449
  O          -1.87790419908053     -0.50325265892290      0.07765539027523
  C           2.20817019368833      0.43297131701705      0.83875416802431
  H           0.60496344222584      1.46571615112746     -0.15325208643774
  H           0.09188941987482     -0.17199931259527      2.39867221761966
  H          -1.79394671166885      1.59700320367374      0.73488210252571
  H          -2.24369059602492      0.49569310265173      2.11029637041096
  H           1.44212885042015     -2.26494448522727      0.25238086144748
  H          -0.19410409606360     -2.24811369143123      0.68950718960635
  Cl         -0.13080817609174      1.56460415173152     -2.57473119119633
  Cl         -1.59109231458274     -0.73993538163862     -3.47661221410889
  Cl         -2.91077024354114      1.27022460596942     -1.87188411213430
  F           2.42420839362859     -0.66019329587189      1.61599222019540
  F           2.93510819203404      0.23385287764309     -0.28719576906839
  H           2.64791436682980      1.29832492226201      1.36318893920479
