22
Coordinates from ORCA-job NEB_product E -49.114140158590
  C           3.02246613990061      1.24688484491614      0.39660124825516
  C           1.61078297166061      1.43809910948602     -0.15144024942934
  N           3.16039782881367     -0.03279134269317      1.04387458687401
  H           3.75924554323817      1.32242301589126     -0.40823867022331
  C           1.50800686425830      2.04093312374642     -1.56447367955267
  C           3.27758610168340      2.41130256453112      1.40210736427461
  C           2.47172341163525      2.24322670714872      2.65647865168049
  C           1.38292556277805      2.93958536860051      2.92129075273616
  O           0.62696157901049      1.07865821074929      0.42785604665566
  C           4.76999408243202      2.50311261476121      1.73538382938805
  H           3.01333032698343      3.35090094271093      0.90693166645713
  H           2.83661700744337      1.48798016003738      3.33735668139237
  H           1.00779326557727      3.69201992906169      2.24692565286294
  H           0.81710125096288      2.78158602153802      3.82231430375817
  H           3.18840168144222     -0.78449124553635      0.36650065943363
  H           2.38948271756166     -0.19515751873529      1.68251267637835
  Cl          2.55668173735800      3.45223237072977     -1.77202869327623
  Cl          2.05735088543730      0.73386947562899     -2.65121118190220
  Cl         -0.15911513718641      2.47650376145548     -1.95604105802049
  F           5.24929031241370      1.38204398571682      2.30749162760843
  F           5.49723330038550      2.69927686955877      0.60700752718247
  H           4.98164256621049      3.34380103069624      2.41660025746661
