22
Coordinates from ORCA-job NEB_reactant E -49.117725260070
  C           1.07802066309102      0.03426416976139     -0.24732778263883
  C           1.49675140040964      1.30566447816584     -0.10780943955865
  N           0.54818798326389     -0.70534313425698      0.76921017287944
  H           1.20676321612995     -0.47003794817943     -1.19252929799756
  C           2.12327257383679      2.03964742512775     -1.25287545748587
  C           4.04107065155659      3.61621603690419      2.18622963080917
  C           3.64103957264478      2.45418437996684      1.69875594400348
  C           2.34188048472237      1.80711769468701      2.07015115463869
  O           1.32728036361191      1.99341141152312      1.07641370337679
  C           5.31700788022582      4.28948026878106      1.78382348886034
  H           3.46856922251646      4.16683769381423      2.91820653767501
  H           4.24176305294077      1.93626391121636      0.96389304257739
  H           1.92339231200508      2.27114832024060      2.96601185164784
  H           2.49945822877727      0.73473494660712      2.24224753084666
  H          -0.02006050032767     -1.49538532946123      0.51510089902472
  H           0.22079679582108     -0.17494979139047      1.56305841116329
  Cl          2.31339681337658      3.75616206087770     -0.89900894064110
  Cl          3.74789880708733      1.36348455935830     -1.65966441522749
  Cl          1.13382861627867      1.88075384375585     -2.73192787410759
  F           5.98853549224391      4.73713233183066      2.87876984566421
  F           6.16169433318555      3.45383612195698      1.13779398246148
  H           5.14495203660221      5.16297654871313      1.12987701202859
