21
Coordinates from ORCA-job NEB E -33.374892928730
  C           0.32966021561353     -0.52600908867593      1.09239621563268
  C          -1.07163743778781     -0.42304440987441      0.93096638645967
  O           0.99126356039431      0.35192419068609      1.89004987963651
  H           0.77337694869215     -1.51385227655005      1.16975622050892
  C          -1.85324134526624     -1.58783107110307      0.38757156629931
  C           0.79234249827798      0.05114051609214     -0.71645037250073
  C           0.21538279770983      1.32722179369691     -0.77859138071641
  C          -1.18241568345466      1.45109903341054     -0.70144215668833
  O          -1.54986855463316      0.77425709755961      0.83639073954908
  C           2.29781389231543     -0.06540212428569     -0.78934371805069
  H           0.30841910845689     -0.75566998478552     -1.25905672876037
  H           0.82448002536517      2.16444321786279     -0.46801143743850
  H          -1.78754508926330      0.78287823405755     -1.30393133255348
  H          -1.59798466754244      2.44464810205699     -0.61148309320723
  H           0.47728844054923      1.17380057075196      1.92219131597299
  H          -1.93146375743197     -1.52313757727932     -0.70095255297871
  H          -2.86327237296233     -1.56121666245378      0.78970029570886
  H          -1.38316077482117     -2.52948733801169      0.65265253929917
  F           2.92549830980457      1.02971866078267     -0.26043756973592
  H           2.61434881455030     -0.12770890757597     -1.83892750419062
  H           2.67071507143368     -0.93777197636182     -0.24304731224621
