21
Coordinates from ORCA-job NEB_reactant E -33.402629496130
  C           2.14784868238345     -0.15436268462221     -0.54525520128853
  C           1.39305763056573     -0.41647123566703     -1.61150335817490
  O           2.78215613805857      1.04502687316072     -0.27171490447040
  H           2.26444393359372     -0.92698465924078      0.20246645553320
  C           0.69914856460098     -1.74047441687684     -1.76071739183023
  C           3.83077054807899      0.45024379778984     -3.47956367000333
  C           3.20809110186311      1.55219777494408     -3.09962969334598
  C           1.74454500102199      1.64050433729850     -2.78578443059246
  O           1.09454634426695      0.39422760141008     -2.67366474194044
  C           5.29137040893781      0.35783372578172     -3.78390646585760
  H           3.30096303167388     -0.48437892840548     -3.59705265329468
  H           3.75094372772677      2.47949054334361     -2.98839130554089
  H           1.22700693970739      2.14976319332367     -3.60792706953126
  H           1.60823347283995      2.23168273866213     -1.87334367780483
  H           3.52239719798749      0.88282070043579      0.31991219585538
  H           0.99861896742978     -2.20966620284903     -2.69609075149900
  H          -0.37751533393821     -1.58628036413301     -1.79964838538798
  H           0.93627475001052     -2.40136439513164     -0.93401009307854
  F           5.94298417839292      1.55024428883529     -3.58996187479213
  H           5.45565044236789      0.07591998525341     -4.83211515236665
  H           5.78226427243033     -0.37827267331281     -3.13389783058872
