23
Coordinates from ORCA-job NEB E -61.694303513360
  C           0.66034191309813     -0.70663644926151     -0.19723657468226
  C           2.30158828905181      2.25768250224220      0.18126380456483
  C           0.82529337570983     -0.23701487119802     -1.42461210084407
  H           1.51810032943866     -1.10936948109987      0.31341785766821
  C           1.27434897182187      2.81216203656375     -0.43744414019406
  C          -0.67753726543733     -0.73076375946598      0.48466647552695
  C          -1.60659157665758     -1.75537529338257     -0.12931200101259
  C          -2.90647998593636     -1.55416811920118     -0.26702399407635
  O           3.12752432109053      1.70612522561801      0.73292500706134
  C          -0.50618228330846     -1.01528368086734      1.97490834161936
  H          -1.13402675598676      0.26665114755429      0.39992247318705
  H          -1.13764682642712     -2.68499024396579     -0.41943671706206
  H          -3.39133829275860     -0.63025950493719      0.02117286583369
  H          -3.54594324903660     -2.31364612465601     -0.68788522315360
  Br         -0.58301242456724      0.50901940504008     -2.44257368739794
  Br          2.50607995428270     -0.16119373636443     -2.27400588022223
  Br          1.46948187186209     -3.78251254300297     -1.58368417510009
  Cl          1.91267951799736      5.92388403125850     -0.72959095275273
  Cl          1.44534798219581      3.73647007133951     -1.87402010907140
  Cl         -0.25540341015931      2.82332105689696      0.37165744176809
  Br         -2.19038740753139     -0.76817466170268      2.92064285322587
  Br          0.12264813977281     -2.83184668510469      2.30457181467923
  Br          0.77111481148518      0.24591967769681      2.76167662043476
