23
Coordinates from ORCA-job NEB_reactant E -61.813514396040
  C           2.81717182520191     -0.46342300405633      0.56388460252677
  C           1.74545659352142     -0.02275820096571      1.24519353375658
  C           2.82998212136380     -1.80779521018259     -0.04557733766572
  H           3.68727033628417      0.15482033932268      0.42628814478747
  C           1.72799531774247      1.34423893495460      1.88531802395035
  C           0.56936616148685     -2.07187751826120      4.29829905971835
  C          -0.03014198529610     -2.09224289075916      3.11886166507774
  C          -0.30288411670628     -0.84782023580667      2.32666201824537
  O           0.65979568291234     -0.80605756911054      1.26618885101424
  C           1.00190755103075     -3.25540629698515      5.07171200091053
  H           0.81980274158145     -1.13515519306197      4.78225136778031
  H          -0.27265980982883     -3.02079044962135      2.62216340287732
  H          -0.26736232048024      0.03858688365433      2.95726211325956
  H          -1.27466085026048     -0.91448076325870      1.83017671936047
  Br          1.38304362147127     -2.02615153871618     -1.35708882136288
  Br          4.51636045860555     -2.15180764407995     -0.94274958183495
  Br          2.58659901172235     -3.20085158349010      1.30963412527584
  Cl          1.94573880262860      1.18520157316008      3.65772346509095
  Cl          3.02982247609249      2.39372910990439      1.29201941181147
  Cl          0.18051399450968      2.16759156075626      1.53661047137133
  Br          2.96580067137959     -3.17841681994201      5.24882898494802
  Br          0.22799542092506     -3.18272898202414      6.87639851113523
  Br          0.54148629411217     -4.96330450143062      4.28603926796562
