23
Coordinates from ORCA-job NEB_product E -61.801033726980
  C           1.85071335950744     -1.24698762492955      1.66773673452805
  C           2.99378497593262     -0.31741876197811      2.07071133594765
  C           2.40414302207032     -2.32926463286299      0.74398050237435
  H           1.18803724703778     -0.63877624629791      1.03366387516107
  C           2.60708794307020      1.12229799265860      2.48957613900894
  C           0.91846994117461     -1.60134420543335      2.87383579715171
  C          -0.47212851917328     -1.97028584785501      2.40021411592358
  C          -1.35737807874934     -1.07142910120396      2.01320458978855
  O           4.14761462952755     -0.61454627959989      2.03900026684744
  C           1.37449333420150     -2.59758044199403      3.93715936981782
  H           0.82556156925771     -0.64278859433739      3.40271449990356
  H          -0.73114301596297     -3.01861691590341      2.40432211654573
  H          -1.14398922504572     -0.01518186571895      2.00298804478858
  H          -2.33735366060561     -1.36856599085865      1.68696900580143
  Br          0.98958140868564     -3.47423665454798      0.05165986078211
  Br          3.14607278975556     -1.39237416018875     -0.83428516067696
  Br          3.82215736407252     -3.43853212941621      1.44879145612942
  Cl          2.43622591457881      1.12858719684851      4.27116410405813
  Cl          3.93401901964133      2.20859723866303      2.02965877163110
  Cl          1.10614649480480      1.71507570289594      1.76093583594943
  Br          0.10276675907071     -2.39729117816559      5.43409851138142
  Br          1.28935708383021     -4.47351796032032      3.42046669611719
  Br          3.15035964331759     -2.22981953945399      4.66053353103973
