19
Coordinates from ORCA-job NEB E -47.271111703650
  C          -0.29151883012873      0.46421706999734     -0.54221855397669
  C           0.70495191430297      0.41735511053814      0.58800287880327
  C           0.11961052997960      0.94944087092654     -1.92888567226768
  H          -1.11130373445671      1.12384553274587     -0.21280319795516
  N           2.07878723501040      0.68235091316261      0.49830926978353
  C          -0.80978766705895     -0.98344283757291     -0.50796863784311
  C          -0.66736034384696     -1.43877097067396      0.88944741381443
  C          -0.69299645289479     -0.51381984004604      2.04783750946182
  O           0.21973160103750      0.52145354371327      1.84539789323972
  F          -2.12350236646020     -1.13456163744164     -0.93254583184353
  H          -0.21419819845868     -1.60480631152638     -1.19159830093352
  H          -1.04714753127007     -2.43460567101818      1.07849232489734
  H          -0.37844700424015     -1.01546016502548      2.96955015119457
  H          -1.72076159325897     -0.14827784369678      2.22211645230758
  Br          0.89629155361777      2.73510777453712     -1.84532015447743
  Br          1.29221879122858     -0.25609714497279     -2.89645082271476
  Br         -1.52188498271254      1.10668604503587     -2.99931729013898
  O           2.70373583992474      0.73788730535740      1.53985539674408
  O           2.56358123968518      0.79149825596000     -0.62190082809546
