19
Coordinates from ORCA-job NEB_reactant E -47.318530263920
  C           1.43912106507236     -0.62355460416584     -0.28775996478814
  C           2.03995003527373     -1.72094929488342      0.20556426303416
  C           2.04866930485715      0.57140160703992     -0.91443064423320
  H           0.35947092543633     -0.58910739270788     -0.22632211064593
  N           3.49396644453634     -1.92649181036227      0.19955326027557
  C          -0.96676602173201     -4.23799399070271      2.65988811714585
  C          -0.28749020462361     -4.14667446091987      1.53197790795669
  C           0.04326722565091     -2.84114136534808      0.88592367004380
  O           1.45928197440734     -2.77665616834615      0.76297629195633
  F          -1.26060432749610     -5.41684125506918      3.20658950573457
  H          -1.36738396543845     -3.41251202183019      3.23256263674357
  H           0.08190883380646     -5.03317665125201      1.04024712787508
  H          -0.31978628389456     -2.00252211170287      1.49268194901378
  H          -0.40905709988175     -2.79046109855244     -0.11471929994652
  Br          0.62357521079066      1.80682072427897     -1.43510521490646
  Br          3.21636088212215      1.56332890867463      0.32188961872589
  Br          3.03961438631302      0.14633134531165     -2.56131065045442
  O           3.90457538886760     -2.96014269510602      0.65154554431842
  O           4.15972622593244     -1.02905766435625     -0.26505200784904
