20
Coordinates from ORCA-job NEB E -32.890428663620
  C          -0.63238015960456      0.95540346106597     -1.33289893631562
  C          -1.92680997168439      0.45679249054436     -1.30400379998622
  Br          0.59082759053245      0.10470881932793     -2.50229837799829
  H          -0.48967481833786      2.02818057149801     -1.30777595639757
  F          -2.84140191307907      1.35251514694546     -0.77564676372946
  C          -0.09095766892501      0.32540360453142      0.54427385010896
  C          -0.40402985438304     -1.02299763206958      0.44130704710631
  C          -1.75202783477957     -1.41279624258353      0.30261071793896
  O          -2.22760312738117     -0.75545201376087     -1.22320972678499
  C           1.31780957151148      0.82728037377587      0.75824027610691
  H          -0.83681815267995      0.96244004000234      1.01351690961950
  H           0.35631831286435     -1.71348760166724      0.10914640655060
  H          -2.49350780118951     -0.90653202034795      0.91093921532854
  H          -1.96336019180632     -2.45930909957693      0.13546328151256
  C           2.41636911987533     -0.21990062161625      0.61682356903300
  H           1.35237458040109      1.23790388880815      1.77231827484987
  H           1.52884032370342      1.65779329527194      0.08077739998491
  H           2.27479343058369     -1.02408304191235      1.33462955335647
  H           3.38010662650304      0.24446959090193      0.81084547082389
  H           2.44113193787560     -0.63833300913866     -0.38505841110833
