20
Coordinates from ORCA-job NEB_product E -32.935867563870
  C           3.21789252591896      0.42484006343464      1.93427529788989
  C           1.77346249812229      0.51234010451148      1.54982822551376
  Br          3.94343100199806     -0.77054774992841      0.53995646822021
  H           3.71004220006050      1.38640336727863      1.76741365165322
  F           1.61287037282714      1.35944602602154      0.49448144631838
  C           3.41357693699536     -0.08168189808958      3.36762183746360
  C           3.22608358534657     -1.56862460083334      3.47846816268723
  C           2.20200857516754     -2.13550702069895      4.08540311419123
  O           0.83580800874949     -0.03300768556743      2.00876736141150
  C           4.75736790952360      0.37490974812719      3.96415900220978
  H           2.61834426083121      0.39756101824905      3.95489511181114
  H           3.99777112623392     -2.17483947573242      3.02591736848288
  H           1.41386216565142     -1.55635263547311      4.53721643905869
  H           2.10358548362074     -3.20547745975348      4.14510912799547
  C           5.99948430462643     -0.06736013866170      3.19909379769977
  H           4.80688840583341     -0.01721857058835      4.98228542834580
  H           4.75236098976590      1.46630567857921      4.03340304392123
  H           6.03118288542042     -1.14687434406073      3.08342642322650
  H           6.88723493649592      0.23753860319562      3.74834577227924
  H           6.04744182681112      0.38634696999013      2.21273291962047
