20
Coordinates from ORCA-job NEB E -37.577365338990
  C           0.69991077126033     -0.98808245106386     -0.21645120799518
  C          -0.43791601827625     -1.34019163785179      0.52954881893450
  Cl          2.24646845118578     -1.05696205355614      0.59264708157825
  H           0.78149656609914     -1.39428451831692     -1.22005747364221
  C          -1.66050327592237     -1.82663805417818     -0.22794784607528
  C           0.41795887111895      0.87940908004001     -0.46320923290943
  C           0.25704563676262      1.29914440364480      0.86214889757104
  C          -0.85072125479227      0.80122889759269      1.60901031543280
  O          -0.63095216351450     -0.79927691925925      1.69967581883307
  C           1.59436839716573      1.37653021286677     -1.25953287845738
  H          -0.48788989985315      0.79937427434738     -1.05721254320043
  H           1.13402082842272      1.61849997360198      1.40727700718830
  H          -1.82039848635683      0.85924704154391      1.12011651674239
  H          -0.89425650215257      1.08286260086187      2.65414754726767
  F          -2.21381200366357     -0.84398246184455     -1.00736132737561
  F          -1.33809204774464     -2.82130143075343     -1.08569219979877
  H          -2.44398023565668     -2.18554962436673      0.45413788881154
  H           1.75936867312404      0.76262396519112     -2.14104278281185
  H           2.49997676276338      1.38420331286527     -0.65950702085024
  H           1.38790693003015      2.39314538863505     -1.59069537924315
