20
Coordinates from ORCA-job NEB_reactant E -37.603802888970
  C           2.61847420315548      0.60325569529629     -1.14893257181264
  C           1.43513448957657      1.18012284781456     -1.37299659781198
  Cl          3.95392624500329      1.23917649771612     -0.26858197847033
  H           2.82223181604238     -0.37491633775657     -1.55138396302374
  C           0.42391958177054      0.40927670421909     -2.20802171925718
  C           2.86171283854705      3.82198863546451     -2.49872558063735
  C           2.77734929641572      3.92766455968549     -1.18355839526923
  C           1.68202268791841      3.33775509878074     -0.34193502471766
  O           0.90373821645798      2.35820440413624     -1.00934388894434
  C           3.95641371289998      4.40936055430984     -3.32146014901514
  H           2.10721092180697      3.27732180481667     -3.05171133627383
  H           3.51986023049751      4.47630084371325     -0.62087078853313
  H           0.95323862062987      4.11437772974441     -0.08185322004672
  H           2.09130425925903      2.93132539369219      0.58964726220373
  F          -0.76113551717191      0.31296206260972     -1.56932227903522
  F           0.18037123551738      1.06221583621999     -3.36958754824715
  H           0.75978058834592     -0.60768306330327     -2.45823181518824
  H           4.48266547077671      3.62212484809288     -3.86057757843927
  H           4.66802575307615      4.94793334924464     -2.70073406539489
  H           3.54135534947497      5.09313253550321     -4.06091876208570
