25
Coordinates from ORCA-job NEB E -44.365201582100
  C           0.00657232435359     -1.01362108758206      0.14351293132997
  C          -1.01418442455501     -0.36063573896790     -0.57448426008166
  C          -0.34404220765171     -1.76246969401487      1.38817706184059
  H           0.73150524591601     -1.58284379122583     -0.42948925295797
  C          -0.93421653240876     -0.29703468176238     -2.08846394363914
  C           1.06489013425668      0.62113663202782      0.86498776826669
  C           0.00550947918174      1.27639957136114      1.51778348601019
  C          -1.05651137941070      1.79458965367812      0.79379435213257
  O          -1.87412158990954      0.34510699045991      0.03507179765412
  N           2.15173245279106      0.18767092007365      1.57848709462180
  H           1.32587704097720      0.95337592549406     -0.13207436439665
  H          -0.13199416694461      1.07618223081278      2.57039117540630
  H          -0.86915390180240      2.26210364718919     -0.16199318156076
  H          -1.90031156121017      2.19515968901251      1.33187846773751
  F           0.75485587457060     -2.13087626160073      2.09378348220307
  F          -1.14598986837325     -1.15159485685627      2.25636396152349
  F          -0.95221936733970     -2.93331185479088      1.07970981077305
  C           0.31351274067564      0.39933220246510     -2.63143790994547
  H          -1.82387839212897      0.23026620802598     -2.43614867797404
  H          -0.97004539155416     -1.31819604253604     -2.47496204930493
  H           0.36268395834950      1.43063111070418     -2.28964518089094
  H           0.28147865180686      0.40614651110491     -3.71845851785140
  H           1.21889733461686     -0.11822679051082     -2.32361049298259
  H           1.96986516256123     -0.13470021429408      2.51741378463073
  H           2.82928838323199     -0.37459027826747      1.08941265745549
