25
Coordinates from ORCA-job NEB_reactant E -44.399876964420
  C           0.95763749626917     -0.15804604699956     -0.35420719647257
  C           1.39717477832581      1.10489475774699     -0.21994752042381
  C           0.36661068753643     -0.91347238247830      0.77920532638060
  H           1.01648444848728     -0.68462412198572     -1.28797594635942
  C           2.02670370810120      1.79797609371904     -1.39768870185640
  C           3.80581033872304      4.16289804965519      0.61760259842607
  C           3.16112195367458      3.20011092646802      1.27449752858138
  C           1.67676933732879      3.02056277539927      1.24368427018456
  O           1.26944382473693      1.68085262062393      0.98343832550176
  N           5.14962811508674      4.43497911343091      0.73297805854996
  H           3.26620272533498      4.86520699048628     -0.00516959588087
  H           3.69803523178300      2.50688570148613      1.90588628125333
  H           1.20857765582475      3.71621183340134      0.53682815832261
  H           1.25438605887331      3.20558651597348      2.23815577724679
  F           1.20628889248062     -1.07015666845082      1.82383705752925
  F          -0.74445573735358     -0.34530383487274      1.29175787814004
  F           0.00646917873634     -2.15635417574600      0.40896926955929
  C           3.47785958315016      1.34604478317100     -1.57677858609601
  H           1.99781011170158      2.87866968319615     -1.27121076129992
  H           1.45872148563693      1.54188951251739     -2.29284118956466
  H           4.06194920952825      1.58659079497754     -0.69237650069522
  H           3.92083033266042      1.84660532125191     -2.43435251069261
  H           3.52107600583478      0.27241639896230     -1.73734564648491
  H           5.70511421852875      3.71702717134106      1.17170855745237
  H           5.59285035900976      4.88244818672523     -0.05185493130159
