22
Coordinates from ORCA-job P E -35.608270740730
  C          -0.99989880149998      0.22698509146030     -2.53158922640997
  C          -0.65656893351696     -1.64942776731647     -0.21611986919110
  C          -1.26544263621441     -2.04005516331459     -1.52849140744055
  C          -1.41785825466920     -1.21609459030342     -2.54978506221688
  C          -0.83411579636292      0.72135907423794     -1.08370204910469
  C          -0.00814770619145     -0.27468331143776     -0.27088984954549
  H          -1.58928063629673     -3.06731083767348     -1.60214207955334
  H          -1.86972893752046     -1.53977663017719     -3.47372744224030
  O          -1.98173928388861      0.95757909688333     -3.23752226170147
  H          -1.43531732018109     -1.64691753871860      0.55194112576086
  H          -0.03350598920747      0.32589250089686     -3.06365615569624
  H           0.08541449506302     -2.39778945022470      0.07363814711342
  H          -1.82493643022903      0.81555512858583     -0.63671559061461
  H           0.15313599431247      0.12619376571646      0.73668963916761
  H          -0.34445699433576      1.69643853235311     -1.06729595884702
  N           1.34984442893011     -0.34403025944805     -0.88412625700067
  C          -1.59500132613056      2.25284022989243     -3.62240241401847
  H          -2.37989496209225      2.61912059168822     -4.28135034405404
  H          -0.64188156479798      2.23772588995966     -4.16465287118491
  H          -1.50379291775459      2.92822513432027     -2.76476319342458
  O           1.77326511087836     -1.41400130140664     -1.23889003174049
  O           1.94391846170548      0.70448181402651     -0.97525684805708
