22
Coordinates from ORCA-job R E -35.523297667680
  C          -1.19768899403183     -0.00760546164011     -2.90861848585330
  C          -0.19287088180655     -2.49552934735231     -1.51960241806755
  C          -1.44433290105303     -2.04121609595108     -1.52175373689499
  C          -1.91061313497724     -0.79618242626527     -2.08754109869237
  C          -1.32716081360470      0.79974872724525      0.18163549768806
  C          -0.13713937340886      0.26074091570231      0.41295565978154
  H          -2.21052167040124     -2.62999340220545     -1.03339851032861
  H          -2.92587074344328     -0.50334081935754     -1.86199427861539
  O          -1.69856750786306      1.14478653102924     -3.38627988400283
  H           0.05791569294554     -3.43670830220175     -1.06309590145508
  H          -0.19581006691568     -0.26834185294772     -3.22761574677288
  H           0.62229802552277     -1.96115613783137     -1.97543462603891
  H          -2.17760235449706      0.56667469808763      0.79657965787726
  H           0.09335771280061     -0.44448562369970      1.19525792904682
  H          -1.46130688811769      1.52142282699177     -0.60662658089007
  N           0.97585652673409      0.55960554562745     -0.42323752452097
  C          -0.80426422860980      1.92950233048659     -4.14891844721397
  H          -1.33871103359728      2.84143308011422     -4.40722912349587
  H          -0.50677485617079      1.40825703174520     -5.06401062579614
  H           0.08470527840512      2.17070685905967     -3.56037250311993
  O           2.04611278627255      0.06755837893556     -0.12628495906183
  O           0.79454942581741      1.27462254442742     -1.39258429357303
