22
Coordinates from ORCA-job TS E -35.516417008120
  C          -0.66316711681531      0.08691780547839     -0.94514140276571
  C           0.55299548901508     -2.12023750672632      0.49579578944356
  C          -0.77157129305159     -2.04930129721968      0.23417537733080
  C          -1.36627706420021     -1.01051159595182     -0.51249855399450
  C          -0.29563222745873      0.85207967439565      1.06332931826992
  C           0.53794061394019      0.01025030129653      1.74049765066577
  H          -1.44263625112742     -2.74075432478078      0.72483877342278
  H          -2.44205715680712     -0.98128458819372     -0.60127756299662
  O          -1.31331863415833      1.08192863337300     -1.58286139703310
  H           0.94541876227640     -2.86486516149487      1.16747321866133
  H           0.41061297823962      0.04721159159246     -1.09543757614338
  H           1.28134233924974     -1.61022911175770     -0.10796150183263
  H          -1.32527873159248      0.94261975894994      1.35813775184513
  H           0.24363320270209     -0.61940991927478      2.56159692301433
  H           0.14434422835146      1.69556754623034      0.55712635728930
  N           1.93006825862629      0.10444821539203      1.53740642971024
  C          -0.50161034125020      2.03211251711646     -2.24149059916513
  H          -1.17320722421506      2.80008190774136     -2.61955321045001
  H           0.03749586788366      1.57504746113803     -3.07650470288143
  H           0.22382401598390      2.48461591657425     -1.55885491852101
  O           2.66248852069741     -0.44400180942128      2.33987347957383
  O           2.32459176371061      0.72771398554249      0.56133035655653
