21
Coordinates from ORCA-job NEB_reactant E -33.414617912770
  C           2.45037094401840      0.30462641165019     -0.17689393488649
  C           2.99025688909630      1.15843420530182     -1.03238851700876
  C           0.98227061220240      0.05613717376492     -0.07731231369287
  H           3.10448684092084     -0.22116923054402      0.49933371904289
  F           4.34302169577022      1.30916775367423     -1.06665953480795
  C           4.21379930390853      0.40285648765035     -4.18658083243771
  C           3.05185856168092      1.01308393105838     -3.97864601249227
  C           2.94440561367363      2.24349410075737     -3.13399677990665
  O           2.32506019423528      1.96392298299089     -1.86995158031756
  O           4.46030927335305     -0.72038426919976     -4.88925238800070
  H           5.13985027897226      0.80049241271783     -3.79145958149201
  H           2.11769647030896      0.61703039247814     -4.34482116481712
  H           2.27930615224491      2.98072024807356     -3.58896875068281
  H           3.93086562968712      2.69130166122521     -2.97341803126660
  H           0.45593541819675      0.59770508056900     -0.85766533228775
  H           0.60696888459942      0.38420566018191      0.89139352071856
  H           0.77435499510402     -1.00894385579082     -0.17186962558137
  C           3.35987056903754     -1.38822715470685     -5.46248485996743
  H           3.76697977643405     -2.26313439342957     -5.96576960071389
  H           2.84721366759270     -0.75187168732625     -6.19047857892658
  H           2.64671822896269     -1.70534791109652     -4.69540982047493
