17
Coordinates from ORCA-job NEB_product E -37.788428662120
  C           2.67282732523621      0.89856839844124     -1.06832196343733
  C           1.55174380419168      0.28454483877264     -1.85605482762326
  C           2.38018779222955      0.70137956194575      0.34220759963487
  H           3.60210223759937      0.35014650819806     -1.27850401392894
  N           1.63710823567476     -1.26942316974211     -1.87691397625389
  C           2.83430985168879      2.39497060913908     -1.39913066120937
  C           1.68417159424889      3.22635138901954     -0.94091662412750
  C           1.04266275267576      4.06903311777752     -1.72909696484098
  O           0.65128325263010      0.79227653946589     -2.42668487167252
  Cl          4.34164730464799      2.96634993055116     -0.57735597999331
  H           3.00388683901935      2.51488494528573     -2.47195399564262
  H           1.41771903601371      3.11509022953499      0.10099713042161
  H           1.30457247576321      4.19126377067133     -2.76692723662907
  H           0.22279336853481      4.66324224504185     -1.36709022740599
  N           2.14302579694167      0.56109967421918      1.44823430167067
  O           0.65149170091969     -1.82837642863252     -2.26349203270783
  O           2.67676663198445     -1.76050215968931     -1.51299565625452
