17
Coordinates from ORCA-job NEB_reactant E -37.797388835520
  C           1.98089866849199      0.15944176705266     -0.26541637860067
  C           1.55635471060409      0.32936020851747     -1.52965133991579
  C           2.04108137818501      1.13286380536441      0.73987918702714
  H           2.31040296598933     -0.83237101937766      0.02045746780074
  N           1.59039318469049     -0.84536611316693     -2.42576244098580
  C           3.48927770631582      2.87011926565774     -1.94368573408406
  C           2.39621717721747      3.23603335228337     -1.29371732168896
  C           1.04045060443872      2.64538866583046     -1.55722911220512
  O           1.08624686744444      1.37770200067910     -2.19128359987640
  Cl          5.02719257512794      3.55067872845342     -1.62208739647496
  H           3.50002723157131      2.12292235142207     -2.72379551725540
  H           2.42756291186257      3.99377993433463     -0.52669004141112
  H           0.48231406466217      3.27634851836349     -2.25705636570984
  H           0.47571581936255      2.57812322231767     -0.62011127540141
  N           2.11362972367601      1.89360191707257      1.59636946770975
  O           1.29942689277034     -0.65392248634971     -3.57666040128508
  O           1.91270751758974     -1.90130411845476     -1.93505919764300
