21
Coordinates from ORCA-job NEB_reactant E -39.528315345140
  C           1.80512870641709      0.21283790185613      0.02894448254168
  C           1.61284457155684     -1.11869707551898      0.06584031336883
  N           1.19603004188538      1.04812096470714     -0.86194660498743
  H           2.52124979514638      0.67390505835976      0.69462806531396
  C           2.33548566328701     -1.97346102497218      1.04175822490046
  C           2.75729048817326     -3.90175757958634     -2.16460426302624
  C           2.50973329174165     -2.59010804132181     -2.20852127604068
  C           1.13516206513274     -2.02273494777897     -2.10554866849052
  O           0.71543494015832     -1.77676258583880     -0.74055825711171
  N           3.99652624467386     -4.47241702218667     -2.28424348715825
  H           1.93914849898996     -4.60700368122064     -2.09647336515403
  H           3.32512895966976     -1.88334780322789     -2.27633060518777
  H           0.38191730803431     -2.72368523976537     -2.47008789826541
  H           1.06849854053176     -1.08329067733105     -2.66725871276461
  H           0.36933491985652      0.68355679801965     -1.31057446339153
  H           1.16060953870135      2.02466426739287     -0.62411968933850
  Br          2.25942832396771     -1.25360317492697      2.86924483716872
  Br          1.60569878090760     -3.75193311746902      1.07666547064712
  Br          4.28670292323210     -2.13804715066911      0.62729376743228
  H           4.78114310745800     -3.85645071045117     -2.13291564748744
  H           4.11040329047842     -5.39328515807060     -1.89489222296894
