23
Coordinates from ORCA-job NEB_reactant E -42.562461463950
  C           1.77785212314367      0.18415084644417      0.19233829716098
  C           1.22253254223944      1.35979028624563      0.44618848216551
  C           1.86245051935580     -1.07275452730558      1.00489558703243
  H           2.27596665971354      0.10224873863929     -0.76386673312048
  Br          1.32722551412133      2.73002585573471     -0.89244127538165
  C           2.07274341255787      0.31392583633870      4.36185406568544
  C           1.82954587865240      1.15822169824925      3.37166523293778
  C           0.47869178713507      1.32795014926770      2.74800069729468
  O           0.52536736578205      1.91051948167618      1.46816000913202
  C           3.37030734808004      0.11506800849591      5.04052366187197
  H           1.28228374318282     -0.30766562058472      4.76664369993121
  H           2.60445863250222      1.79256312658092      2.96171032761417
  H          -0.09716455208389      2.05234291563581      3.33834579233514
  H          -0.08140569210276      0.38378685363911      2.73353413360923
  C           3.32512841677315     -1.45876192899595      1.22751227685377
  H           1.37108283850843     -1.87034424139316      0.43970455848388
  H           1.35591811557254     -0.99085023166725      1.96368600167127
  H           3.82652031006648     -1.61294142770736      0.27562705520981
  H           3.38975453210392     -2.37717657986638      1.80565535548770
  H           3.85331121449689     -0.67231783721226      1.76240054179189
  Br          3.20899524699895      0.67048592496535      6.93602167374319
  Br          3.82531296835708     -1.80433257676371      5.01929465433673
  Br          4.85702107484295      1.08406524958364      4.25624590415331
