18
Coordinates from ORCA-job NEB_reactant E -36.726768250260
  C           1.99459250520636     -0.08480654301725     -0.02885283187648
  C           1.34946593209882     -0.97894404444093      0.77900488123398
  N           2.23062217866328     -0.26887029693317     -1.39126659821827
  H           2.35110448888920      0.85296508146822      0.36137312104362
  N           1.05714713233760     -0.64807136387351      2.07020399169253
  C          -0.27246326294363     -5.39235190754117      0.45428278447848
  C          -0.30909822934328     -4.11137567405330      0.12824602837426
  C           0.13186500031791     -3.01660416091756      1.05112060402392
  O           0.96525533406532     -2.15206585547226      0.29564574493853
  Cl         -0.80120600789833     -6.63250496899907     -0.60062936535376
  H           0.07147514113008     -5.75583160603543      1.41169945552283
  H          -0.63798568807934     -3.78124630170007     -0.84477796880735
  H           0.67498705417768     -3.43745287118867      1.90877864545201
  H          -0.74587803276989     -2.46112132563485      1.41334665136704
  O           2.82759077111475      0.63372767975190     -1.96208773990894
  O           1.84473169601990     -1.28269196325186     -1.94630479097075
  H           0.90799106369046     -1.37795537370374      2.74620311145811
  H           1.46780292332309      0.19900149554272      2.42321427555025
