18
Coordinates from ORCA-job NEB_product E -36.747280089040
  C           1.77800251484003     -2.06117584941396      0.43274614676443
  C           1.18262731265119     -1.11021490307273      1.52727226069712
  N           1.77882148400849     -1.36739804910144     -0.87093965059162
  H           2.83254909399415     -2.20894960794714      0.69476908889199
  N           1.75852729879586      0.09804366415168      1.53968943203878
  C           1.05264979712527     -3.40578080459942      0.44467656466107
  C          -0.40904566436120     -3.36730265392165      0.14406687360182
  C          -1.30944303973624     -3.91684848879989      0.93784815486833
  O           0.33754183198494     -1.48958245699837      2.29416448881694
  Cl          1.87934429203204     -4.48523083611989     -0.75427251660541
  H           1.21573702411223     -3.86257962306203      1.42439925879928
  H          -0.69166894482914     -2.89800110065413     -0.78569574686356
  H          -1.03776855597029     -4.39267216326664      1.86507653565844
  H          -2.35757152899010     -3.89201271251196      0.69769079679126
  O           2.58517914124686     -0.46206088683695     -0.96880757547021
  O           0.99988191778939     -1.68644116061398     -1.72330277969784
  H           1.42240346931162      0.78469111738136      2.19499850091521
  H           2.40733255599492      0.38121651538715      0.81692016672396
