17
Coordinates from ORCA-job NEB E -38.092038066210
  C           0.96052366929628      0.25913161662525      0.57364226245695
  C          -0.02813985456916     -0.26442988505397      1.40549667783116
  C           0.93741289155753      1.71053507740518      0.18445224423517
  H           1.97813671439303     -0.05899907727293      0.78144959271844
  Cl          0.45759921007143     -1.68700315066923      2.33609552811773
  C           0.44977744140892     -0.78544085543180     -1.07884262422669
  C          -0.90254628546323     -0.53846690079979     -1.18666009190742
  C          -1.75535328083794     -0.97210433089573     -0.12020295095783
  O          -1.27760947083085     -0.14299639327453      1.17171259069605
  H           1.11463385773821     -0.39191530516949     -1.83169553945784
  H           0.77393282354827     -1.72025758087336     -0.64202420127940
  H          -1.25157014720936      0.25443586666294     -1.82954527389274
  H          -1.61026444067412     -1.99476246900452      0.22281539094279
  H          -2.80153278512433     -0.69998447464101     -0.19273829354034
  Cl         -0.65521324594929      2.36798846973116     -0.17859298669343
  Cl          1.59539475029307      2.64239050570492      1.58035811359816
  Cl          2.01481815235154      2.02187888695691     -1.19572043864074
