17
Coordinates from ORCA-job NEB_reactant E -38.119059003050
  C           1.60747429759969      0.08402771685743      0.12808644895784
  C           0.97533700595987     -0.99230576949157     -0.36307916195871
  C           2.01440609089527      1.20973782180796     -0.74363142705284
  H           1.83616800749485      0.15404271805248      1.17597868309069
  Cl          0.53033282064504     -2.26623335969548      0.71712129148807
  C          -0.03565041807074     -2.99203483710302     -4.51430610444277
  C          -0.22633678219275     -2.05784865982888     -3.60363827488157
  C          -0.00805338941775     -2.26189123635960     -2.13661442234663
  O           0.68133940376265     -1.11463189665001     -1.64417405636152
  H          -0.22313508154609     -2.80969806707752     -5.55763773219654
  H           0.30457895843869     -3.98090847341585     -4.25406233015615
  H          -0.55996008493861     -1.06566497094705     -3.86984306339104
  H           0.57984689166681     -3.16670628301828     -1.94531110321225
  H          -0.97481667528715     -2.35276228060015     -1.62126450616573
  Cl          0.60364147362594      1.93745660982785     -1.56895504867261
  Cl          2.80995396529869      2.47094204251360      0.20520410344237
  Cl          3.14777351606559      0.66867892512807     -2.02067329614064
