19
Coordinates from ORCA-job NEB E -41.347764509890
  C           1.18720965550676      0.74144443341533     -0.07869066947633
  C           0.36928500439370      1.71900682747431      0.52277254890982
  N           1.28773993022259      0.71426913432674     -1.44020908058941
  H           2.08711360380533      0.43376609767382      0.44100964527507
  I           0.78032056817623      2.08176354237368      2.62450323643972
  C          -0.16244693716894     -0.76255177839502      0.47949011184304
  C          -1.34741356112986     -0.33463809608594     -0.11198079039252
  C          -1.99082199389071      0.79997617198356      0.39194707399218
  O          -0.74799569445017      2.04919501753023      0.08088472513470
  C           0.50577396593901     -1.98666988573906     -0.06970021805876
  H          -0.03354352895266     -0.68290042879076      1.55194409259722
  H          -1.55260742759426     -0.64201515686216     -1.12856898381318
  H          -2.02605240099258      0.94592347922880      1.46405245869496
  H          -2.83673191424318      1.20118237958052     -0.14397168619159
  H           1.81197990592567     -0.03648386124731     -1.85895342403428
  H           0.46522240699370      0.99610132896074     -1.95330105282451
  F           0.48343206900320     -2.04318246347530     -1.41475613195413
  F           1.79960411052778     -2.07869064745965      0.28171971431874
  F          -0.08006776207162     -3.11549609449252      0.36180843012925
