19
Coordinates from ORCA-job NEB_reactant E -41.366282986070
  C           1.79098950632298     -0.00990323946344      0.14460129417856
  C           1.60032672690626     -0.91514901483767      1.10500789568081
  N           1.69289494483792     -0.28599782034437     -1.20211459421643
  H           1.98122124164588      1.01922305021772      0.40383417996813
  I           1.61986814064841     -0.29115665465994      3.15077550488122
  C          -0.49586388749099     -5.12715348659456      1.64912005779478
  C           0.16313964101844     -4.23219498623450      0.93207827259846
  C           0.16395936615178     -2.76902756429698      1.21713289170208
  O           1.43834874688052     -2.24317473066683      0.87915695653432
  C          -0.50837850697530     -6.58402648323646      1.31220233714064
  H          -1.08563303998457     -4.87639128653285      2.51775947318817
  H           0.75309984004132     -4.53065159460985      0.07620427965942
  H          -0.05719971931261     -2.57238676855962      2.27517188451581
  H          -0.61242285251446     -2.27979596876908      0.60676218689557
  H           2.24972040482028      0.29339401661596     -1.80942100982494
  H           1.72487539167960     -1.26808308407341     -1.43414938466430
  F           0.23837735815676     -6.89247923706024      0.24401906427428
  F          -0.05855755441661     -7.33977455274596      2.32775430901160
  F          -1.75346574841561     -7.02217059414789      1.04520440068182
