22
Coordinates from ORCA-job NEB_product E -38.880587290400
  C           2.46329692233028     -1.34749456676952      1.09748424375527
  C           1.28461499776248     -0.68534212759184      1.86760331746494
  N           2.01105234608190     -1.39698662611349     -0.32263700307991
  H           3.31959103552616     -0.66592090759216      1.10977735805291
  C           1.35432080583953      0.81325555687742      1.90700007796037
  C           2.83218689499214     -2.69541511582473      1.69658533006156
  C           1.73142700568238     -3.68480768523006      1.82604852533273
  C           1.50976171287956     -4.35551804686733      2.94312279986449
  O           0.41774487016846     -1.34661592103318      2.36161917058721
  I           4.46934398310907     -3.57134719892761      0.51149877522093
  H           3.28803435760111     -2.51477993085812      2.67264072144590
  H           1.13854005590750     -3.86284954201333      0.94198397281890
  H           2.10109385681173     -4.20107522985550      3.83161408594832
  H           0.71536409056146     -5.07622082258732      3.01510945169105
  O           1.93426175753381     -0.32548645495757     -0.87389034344661
  O           1.74294573037067     -2.46091361487713     -0.80602637226129
  C           2.39688053038070      1.28174129239184      2.92694805543392
  H           0.37238570282360      1.19090089165496      2.19498341066015
  H           1.60997302612523      1.18849958268084      0.91361209361498
  H           2.16437912706966      0.88871311648441      3.91390785399977
  H           2.38838104685238      2.36674365882523      2.97756502667848
  H           3.40022014359019      0.96391969218419      2.65304944819594
