19
Coordinates from ORCA-job NEB E -44.841088416950
  C          -0.15068131842944      0.76593858477724     -0.83097836969273
  C          -1.11001671945297     -0.35201981609143     -0.87803988165671
  Cl          1.00691809703581      0.50025917917946     -2.23499824651444
  H          -0.65642427801959      1.69549513007937     -1.10371989845719
  N          -1.92702433453719     -0.47870665621677     -2.01238022783164
  C           0.54892365952963      0.91999861983824      0.52946270190235
  C          -0.15495486570043      0.10616704773736      1.54984088362174
  C          -0.65869870842825     -1.23105293630777      1.22479844246705
  O          -1.19859231901793     -1.38136246049301     -0.04639544881487
  C           2.05349894401567      0.52787698325648      0.55592675786253
  H           0.54427930145215      1.97817801541233      0.81373181476186
  H           0.05321052437653      0.30818739348291      2.58638856774900
  H          -1.44502322424806     -1.54836363759506      1.92096490062885
  H           0.15384674779427     -1.97296244579870      1.32126404349816
  O          -2.61661392643008     -1.48283796259567     -2.10750988914990
  O          -1.93305825644602      0.45874448664806     -2.80366656915729
  F           2.23937716087556     -0.74181429630524      0.13970371801281
  F           2.81006522873287      1.33149713701682     -0.21073570842656
  H           2.44096828689747      0.59677763397540      1.58634240919697
