19
Coordinates from ORCA-job NEB_product E -44.888575243640
  C           2.30273810791319      1.71757266815631      1.57882114032501
  C           1.16556230062993      2.64848002764022      1.30856517986378
  Cl          1.57508171454201      0.16834120340794      0.99514851700326
  H           3.16590427348311      1.92807040375786      0.94128983699326
  N           1.02453697541003      2.98998860924073     -0.19684619658517
  C           2.68116531653647      1.59808676432352      3.05513851933749
  C           3.72714778358840      0.53107686795815      3.24093564584429
  C           3.56385271892548     -0.51979714627818      4.01946947192959
  O           0.35341880550742      3.08437961440900      2.05232895654998
  C           3.21811535812545      2.95209949537425      3.54993351276266
  H           1.79115545550278      1.36413261888757      3.64739202703983
  H           4.64682564375694      0.69346867745225      2.69684458028178
  H           2.65381755253140     -0.68470295001546      4.57217206630052
  H           4.33664714361392     -1.25864592544644      4.13588330148771
  O          -0.03161824066291      3.45306447528913     -0.51830327259552
  O           1.98490183376955      2.78017740355262     -0.89280851984518
  F           3.67018178417083      2.84139098062542      4.81497486623260
  F           4.26998058060463      3.35289385162637      2.79588557467480
  H           2.46418489205135      3.75392236003876      3.52957479239933
