29
Coordinates from ORCA-job NEB E -47.255152527950
  C           0.39705274113065      0.84615594679171      0.26130021464703
  C          -0.96754633283124      0.70001761433396      0.57379584204838
  C           0.84926659686038      2.06921437822106     -0.48224469888728
  H           1.09655346471292      0.64207757067433      1.06487163301961
  C          -1.33701106687341     -0.07654400525774      1.81701327190696
  C           0.66488015073888     -0.58467835111598     -1.12763386022879
  C          -0.62386169199001     -1.02602676720625     -1.44106275299674
  C          -1.59520830069962     -0.06222541373122     -1.77726190158845
  O          -1.85491296432231      0.81938036506067     -0.34460950536239
  C           1.64652418232563     -1.57733184459331     -0.55054524012246
  H           1.10960280804512      0.10564149855128     -1.83525449496751
  H          -0.96957219954338     -1.93472198880708     -0.96107168012172
  H          -2.60601354800649     -0.40333672161426     -1.95838195938953
  H          -1.29222293361853      0.74532027555928     -2.43182915504493
  F           2.15187854851290      2.01038863035457     -0.82178238449483
  F           0.18855378726712      2.36048680862893     -1.60580663407789
  F           0.74008901650951      3.16294040155034      0.30428516883538
  C          -2.73747811974195      0.27593073612895      2.30617561450650
  H          -0.60065503039804      0.09898185990583      2.60115995327790
  H          -1.30581979928308     -1.14033011620306      1.54736175523871
  H          -2.76837619257487      1.30834043599848      2.64491729360234
  H          -3.02688272722617     -0.37134105391851      3.12996457056369
  H          -3.45322357800284      0.15967529939480      1.49681617944921
  C           3.06603960246488     -1.03855297554440     -0.42565001411568
  H           1.66060711016563     -2.44525349777275     -1.21640795102040
  H           1.28983380488778     -1.92498032126366      0.42193901875583
  H           3.42817648336731     -0.69347188567904     -1.39085326832511
  H           3.73218584092377     -1.82035690780889     -0.06876060377893
  H           3.11754034719946     -0.20539997063806      0.26955558867109
