29
Coordinates from ORCA-job NEB_reactant E -47.297292739040
  C           2.09790118978012     -1.17351480316351      0.37315138469140
  C           1.18399763008582     -2.15224230885667      0.27749420175187
  C           3.11846526201487     -0.65875113805046     -0.57208695315155
  H           2.12116474058855     -0.62660930562737      1.30236337771191
  C           0.24818553298236     -2.36504415262364      1.44699862222308
  C           3.78425622901472     -3.89786458302338     -2.69804373329502
  C           2.77750906455302     -3.95477397325132     -1.84402369232512
  C           1.53989370927300     -3.11011723513191     -1.94252462674281
  O           0.85893505230233     -2.99958031803599     -0.69857083727100
  C           5.00986606537147     -4.74746301167977     -2.62354775751317
  H           3.76204824943653     -3.18225015122740     -3.50963693015555
  H           2.78087859069954     -4.65881994965593     -1.02302064728804
  H           0.80574738536100     -3.61446043769002     -2.58437549752043
  H           1.75146039374596     -2.13366820439939     -2.38106114668187
  F           4.08965618391537     -1.53653759008773     -0.89907037318087
  F           2.62992108912775     -0.20664008587253     -1.75261442243469
  F           3.75764271742623      0.39436198764049     -0.03148610376885
  C          -0.96335878793417     -1.43967043549777      1.33333440126119
  H           0.77176195543917     -2.17684068408720      2.38317412989365
  H          -0.08700954388769     -3.40213252001424      1.42955740121237
  H          -0.64991706461323     -0.39889638001576      1.34709841468861
  H          -1.64271923404817     -1.61044518165981      2.16425992311001
  H          -1.49607643735296     -1.62868181691308      0.40508802894802
  C           6.26260800901545     -3.87952118666426     -2.51070457848447
  H           5.07783096854967     -5.35832082165866     -3.52877449052214
  H           4.94440403223637     -5.41794836517937     -1.76505941590177
  H           6.36196971145940     -3.23999799479501     -3.38451629791048
  H           7.15111085078448     -4.50159065296944     -2.43359503005607
  H           6.19816645467307     -3.24647869980886     -1.62970735128822
