16
Coordinates from ORCA-job NEB E -32.768150567680
  C           0.59765543170349      0.21950274080481      1.16391734545287
  C          -0.73170799991245     -0.14281878379597      0.91418630627732
  Br          0.90749623177298      2.05127147254324      1.66235233120916
  H           1.15652028730129     -0.44373594727745      1.81653587466926
  N          -1.05990643020451     -1.53709521065307      1.16446226534327
  C           1.38373148799564      0.06921980967567     -0.60820509949443
  C           0.31227418888425      0.06458274123597     -1.49617498006602
  C          -0.74475872658159      1.02550771623084     -1.22434487761632
  O          -1.44142309053379      0.40915064833653     -0.03699901951044
  H           2.01547811591445     -0.81044415211368     -0.58802451206162
  H           1.93908109672601      0.99186316635372     -0.51295392219728
  H          -0.01301102027106     -0.87772655649367     -1.92027672520458
  H          -1.54012101438402      1.08350178262061     -1.96191970274942
  H          -0.39790751327705      2.01886496474515     -0.93368043237138
  O          -1.96599558128101     -2.02289632685280      0.52647814974409
  O          -0.41740546385262     -2.09874806535990      2.03464699857551
