16
Coordinates from ORCA-job NEB_reactant E -32.800373471410
  C           1.60869390290722     -0.02949327139530     -0.20830901819871
  C           1.61049785240880     -1.03347311615884     -1.09169859275159
  Br          2.23554927536506      1.72820559466584     -0.42546263437563
  H           1.20373266261610     -0.21905468834525      0.77461221426657
  N           1.04215359865346     -2.31439040726700     -0.61342544751789
  C           3.91021880366859     -0.32789458971853     -5.17244632289800
  C           2.83139439615234     -0.63649535699689     -4.48043177611521
  C           2.54358083242416     -0.11351940803892     -3.10637821373604
  O           2.00193686935725     -1.19230416773338     -2.34894905151072
  H           4.07054213845183     -0.70815983834118     -6.16560260691805
  H           4.67067299713912      0.32737433776877     -4.78048892650864
  H           2.07371506301889     -1.29885578394833     -4.87222784811673
  H           1.80603988580107      0.69863844108676     -3.16604815267014
  H           3.45719061049393      0.26516903396550     -2.63664795717174
  O           0.99660881794327     -3.21177868010274     -1.41138685856850
  O           0.66677229359892     -2.36356809944050      0.53539119279104
