16
Coordinates from ORCA-job NEB_product E -32.808254476970
  C           2.61660647230381     -0.56655201985109     -1.37062548354231
  C           1.30445959523484     -1.26824266775025     -1.37182000243642
  Br          2.31511967375060      1.30954905953676     -0.90127432445058
  H           3.25995799750147     -0.98725561036636     -0.59265793419539
  N           1.47736055312521     -2.81678398269129     -1.40303827716540
  C           3.31855694664064     -0.67681300900792     -2.73880449334760
  C           2.42668083851138     -0.21758605700483     -3.85211611895426
  C           2.58269045128119      0.93103902491236     -4.48192695095954
  O           0.20010931866871     -0.85234056070058     -1.36857419581789
  H           3.61384329788617     -1.71981390556014     -2.88224956800903
  H           4.22127968292996     -0.06408945228358     -2.70411614169349
  H           1.60792935735717     -0.87992175787393     -4.10433326377797
  H           1.91645926112866      1.24288125303436     -5.26662776997608
  H           3.38408051456834      1.60805907789953     -4.23537674688827
  O           0.47424808381598     -3.44093746893007     -1.60151234169566
  O           2.59351795529588     -3.24719192336297     -1.23074638709010
