20
Coordinates from ORCA-job NEB E -32.596089750720
  C          -0.61974808619354     -0.16594970381629     -0.54566198316339
  C           0.16399256928316     -1.30650994747241     -0.36386640154205
  I          -0.02654945805708      0.97411708285675     -2.62203938564935
  H          -1.64742122028067     -0.37181116338900     -0.81807113506019
  C          -0.32061187674547     -2.67888691981761     -0.70084164978200
  C          -0.46581954448845      0.87383889958292      0.60889698836409
  C           0.98248375067515      1.05653088521273      0.82368632110571
  C           1.91915766441001     -0.05327481028997      0.61692816621508
  O           1.41414610001045     -1.27517019806776      0.14663222527783
  C          -1.20225611948621      2.18906622864672      0.38184635813786
  H          -0.94301496506984      0.37887593933628      1.46908211573056
  H           1.39485259921354      2.04814624871813      0.73571414447931
  H           2.44582908237182     -0.31724096150668      1.54584826715260
  H           2.69765981620393      0.26770562265938     -0.09144592660088
  F          -1.48534634343257     -2.96873671241562     -0.01504081791135
  H           0.42352848115867     -3.42445792572966     -0.40989776162465
  H          -0.56713788046535     -2.77528180088577     -1.76533436738568
  H          -2.22724817241763      1.99994618579626      0.07201252735414
  H          -0.71487575533000      2.79281424878269     -0.37799490775611
  H          -1.22162064135991      2.75627880179891      1.30954722265847
