22
Coordinates from ORCA-job NEB_product E -37.917111382060
  C           2.91222068162565      1.68558068469745      0.47875151678463
  C           1.61215476831245      1.86692243412988     -0.29513978250690
  C           3.08019254647594      0.27344182710150      0.72050742270869
  H           3.74579367546382      2.01991428126005     -0.15386650813412
  C           1.59874221060224      1.22953802661015     -1.67481692130831
  C           2.91697898091638      2.53324390406764      1.79040883812955
  C           2.07918567784219      1.88018374288373      2.85579061332821
  C           1.07626552795548      2.49011174739436      3.45686067675146
  O           0.65402629302067      2.44360340668353      0.13733659435062
  O           4.23678961246884      2.84456998300467      2.17798639188770
  H           2.48090539560366      3.50756447415264      1.53809147427386
  H           2.34073286830876      0.86057105146266      3.10547408215278
  H           0.79744469027326      3.50046141542582      3.20922256436452
  H           0.48717641637866      1.99853440736951      4.21188895891747
  N           3.18464435315667     -0.84791414009435      0.91873901938690
  F           2.85193043267106      0.91712269892974     -2.12021734157858
  H           1.14158780749073      1.90915867352059     -2.40164726170873
  H           1.02053172462240      0.29797180818775     -1.63220995171199
  C           4.96929983304151      1.82621479966220      2.82459070226624
  H           5.98178967685106      2.21379007749635      2.92172273995894
  H           4.99139312190639      0.90142604494027      2.23951950684181
  H           4.56851370501219      1.61388865111384      3.82040666484526
