24
Coordinates from ORCA-job R E -40.282637003480
  C          -1.17967598500510     -0.26171609356543     -2.86597438098790
  C          -0.18295909291465     -2.75843462436434     -1.48374923768279
  C          -1.45433758288052     -2.40968201856667     -1.67576957453237
  C          -1.94958338607385     -1.19414238922844     -2.27615703436893
  C          -1.21237084804675      0.45669426811055      0.16848363865640
  C           0.06324332303947      0.16347053313880      0.33878176521952
  H          -2.22773952768843     -3.09275959834560     -1.34402710910499
  H          -3.02126969362880     -1.06272590335962     -2.24734440601719
  N          -1.59657706163550      0.93981495351766     -3.36717971137219
  H           0.07389749690153     -3.69808850309287     -1.02599199988136
  H          -0.11061722406368     -0.40379322661761     -2.92680051334335
  H           0.64321961616695     -2.13543718324073     -1.77874990673779
  H          -1.98200425191511     -0.14623843150519      0.61480838482152
  H           0.41276890750809     -0.68444009710809      0.90610692103869
  H          -1.52529926249582      1.30949075755762     -0.40934901992355
  C           1.16294219416167      0.96679485878031     -0.27818833200946
  C          -2.99196264644040      1.25521594838182     -3.53890083222133
  H          -0.96808864028839      1.38837687440235     -4.01367949481243
  H          -3.50574657878603      1.16785840145170     -2.58080183820181
  H          -3.48792360031259      0.59077129128680     -4.25719865879523
  H          -3.08300792342848      2.28154910815195     -3.88801296085373
  F           1.87978922835258      0.24859384456122     -1.16533761741717
  F           0.73507640411859      2.05208284653762     -0.93847746821518
  F           2.04738613535522      1.40382438311619      0.63818938674263
