24
Coordinates from ORCA-job TS E -40.274075962830
  C          -0.35696279354556      0.14288640911448     -1.20825850513959
  C           1.16343534385635     -1.81307403725331      0.28425567616826
  C          -0.13391628973004     -2.00573048621358     -0.08743539367477
  C          -0.88405591985415     -1.05611006093100     -0.79933622541389
  C           0.00027663778485      0.82711896926044      1.03972867528080
  C           0.85313347765553     -0.05493594670968      1.63337226618058
  H          -0.68063943698486     -2.83334999033265      0.34431294320544
  H          -1.94531006262528     -1.22821547126930     -0.89373384362076
  N          -1.05785734382347      1.12244374196236     -1.84540838931380
  H           1.65407971203787     -2.54082513628256      0.90971248227128
  H           0.71214633487731      0.25693019455919     -1.29336409587457
  H           1.82359905436042     -1.20012339315416     -0.30249491339106
  H          -1.05371954578587      0.77526803116417      1.23281936553858
  H           0.52290339980560     -0.74169455055985      2.39409562382749
  H           0.37659095913390      1.72002259937643      0.57457549538313
  C           2.29699936800470      0.31217693380152      1.72612742071097
  C          -2.49578015536928      1.21343616919084     -1.77173729338211
  H          -0.57715122674650      1.99970595388596     -1.96356861734208
  H          -2.85458238943027      1.28513175208414     -0.73881473677603
  H          -2.94491567307019      0.33398855585823     -2.23443848474489
  H          -2.82388679715166      2.09392548437928     -2.31885134905711
  F           3.09940382513479     -0.70014003169331      2.08514188016104
  F           2.79699929208840      0.81193153229059      0.57977431774940
  F           2.50921022937740      1.27923277747179      2.65352570125371
