17
Coordinates from ORCA-job NEB_reactant E -33.973227523100
  C           1.78354526789932     -0.02219777974154      0.02452097237681
  C           0.91727121256217     -0.36074862242160      0.97181601388887
  C           2.23870312442526     -0.97877178959810     -1.02982103803010
  H           2.19978949644350      0.97092018332698     -0.00892057123347
  Br          0.41384654911605      0.95822647957745      2.28221309698367
  C          -0.04837615407582     -4.54347418898648      2.62088691600083
  C          -0.56683728747431     -3.47329810529033      2.05003403046658
  C          -0.04910870758501     -2.09425112969258      2.28650347891286
  O           0.28598487664860     -1.53646248705791      1.01640302512098
  F          -0.54297862466508     -5.76565877341689      2.40176282021626
  H           0.77990550337267     -4.55896845498410      3.31548657965784
  H          -1.39272832480515     -3.56364523324111      1.36117086664578
  H           0.83254062077681     -2.11258594222884      2.93824193389807
  H          -0.82855543763294     -1.47800045236317      2.75735900475522
  F           3.60438492993662     -0.91267623548047     -1.17029683665558
  H           1.81596491162149     -0.71975887693956     -2.00864707185889
  H           1.98374804343583     -2.01114859146175     -0.77271322114574
