20
Coordinates from ORCA-job NEB_product E -53.403390436860
  C           2.00629338951978     -1.84290295768310      0.58534633826428
  C           1.22405458450642     -1.12959263816569      1.68410691564773
  C           1.92910091182372     -1.09460001952707     -0.74796838381973
  H           3.06378419718409     -1.89737953412623      0.86001750178675
  C           2.01371665911912     -0.68352799419120      2.93190642193849
  C           1.46210059701208     -3.28694066492988      0.49652637965757
  C           0.07037866641836     -3.42581589446680     -0.01418176793024
  C          -0.24331565003385     -4.22327794774605     -1.01962140310997
  O           0.05716092875927     -0.89147999169693      1.61966069384801
  Cl          1.50022466312576     -3.92931916364631      2.18703432283207
  H           2.15415712928210     -3.90351742617382     -0.08101591050049
  H          -0.68379440948437     -2.86452040291682      0.51753716059791
  H          -1.25899759657457     -4.32623338951010     -1.35765356984390
  H           0.50150496822233     -4.79508293625980     -1.54838763099842
  Cl          0.28404091479027     -0.73221232995115     -1.27313856135463
  Cl          2.82185733465196      0.44267214055458     -0.59749896060147
  Cl          2.72481605654491     -2.06372135154688     -2.01144578078688
  Cl          3.53666254042802     -1.52048507353145      3.22459464189715
  Cl          2.35345718645754      1.04491843692592      2.62241384406688
  Cl          0.97839692824706     -0.83778086141123      4.35776774840888
