20
Coordinates from ORCA-job NEB_reactant E -53.397629141380
  C           2.22002946836415     -0.76267617615096      0.03076137121696
  C           1.30846891525774     -1.09481032809206      0.95234173376246
  C           2.05924388294286     -0.74811575248304     -1.44326214146797
  H           3.19848681087418     -0.45802256502680      0.37156542687567
  C           1.70791379321019     -0.98007063408274      2.42056123437320
  C           1.34096312702260     -4.61385108322532      0.77486887955229
  C           0.27502614516837     -3.87918913624739      1.05040538517341
  C          -0.18938315707958     -2.77651532865627      0.14932169813357
  O           0.04134706219780     -1.49674803507947      0.76426676270701
  Cl          1.92045887447103     -5.83982285318495      1.81850281807771
  H           1.91600779457249     -4.50409117153358     -0.13298648843598
  H          -0.26687347946970     -4.00551080686109      1.97573096768461
  H          -1.27302652511889     -2.80478979109596      0.02146402295916
  H           0.30242475815824     -2.83966444832967     -0.82358752883516
  Cl          0.40961312677480     -0.36437047816267     -1.96871122790035
  Cl          3.15504897808315      0.47089120912142     -2.14043973225615
  Cl          2.53084789046379     -2.34371097718442     -2.13178795569756
  Cl          2.86613256638458     -2.29409871336713      2.78614467400062
  Cl          2.49643086508239      0.57220074670948      2.75655080802443
  Cl          0.30883910263982     -1.14753367706738      3.47758929205207
