20
Coordinates from ORCA-job NEB_reactant E -53.483247894500
  C           1.70660618860266      0.21197331263287     -0.13254463320558
  C           1.59845929419575      0.09318524214995     -1.45505150386342
  Br          2.52055795946170      1.59617064962277      0.85586323792052
  H           1.29695830221777     -0.55055961280087      0.50834249343678
  C           0.87890891378993     -1.13211338352643     -2.01049089544370
  C           2.95339114535396      3.87538967194727     -4.00706702834983
  C           2.97998497702300      2.58825226370048     -3.70117786133309
  C           2.68633467845091      2.06045271688247     -2.33332277950497
  O           1.98294547891410      0.83635296178025     -2.50555012782169
  C           3.27441646687730      4.45302456639331     -5.33789327085498
  H           2.70252486364311      4.62383511991063     -3.26776298548066
  H           3.22244121246626      1.83395519121357     -4.43490554907886
  H           2.08938386494736      2.77450948221904     -1.75749499266967
  H           3.63391332326771      1.87597410992814     -1.80947495453042
  F          -0.23918025172782     -0.78663004769299     -2.65635989576391
  F           1.64730730950814     -1.79399763244490     -2.87881832548694
  F           0.52264444265080     -2.00624244926598     -1.06285444819874
  Cl          1.88269244588753      5.41973570395522     -5.90722668963044
  Cl          4.68080954978452      5.54982079549269     -5.16942730153317
  Cl          3.65679983468532      3.24671133790250     -6.57008248860722
