18
Coordinates from ORCA-job NEB E -30.601133564140
  C           0.63176686475871      0.17867366791310     -0.77976920667088
  C          -0.20708696811570      1.40129356301084     -1.04739757748712
  C           0.18812987117753     -1.00481139808365     -1.66188738446075
  H           1.64494733613921      0.44859540862054     -1.11621937959793
  H          -0.44903918378587      1.54419456659976     -2.11491310101799
  C           0.70915751318871     -0.21436140648456      0.66663076900828
  C          -0.31306164215240      0.12413167205690      1.67197584753280
  C          -1.66947585977776      0.41287285199855      1.26161857406499
  O          -0.60317270081241      2.15776198351381     -0.19977495540292
  C           1.77209556459181     -1.00373930653155      1.04494861833856
  H           0.03705756135334      0.98289278070786      2.26245653409830
  H          -0.31831005078081     -0.68785157544295      2.41523693500215
  H          -2.29817498283516      1.01757696989770      1.88564586179853
  H          -2.05951690145317      0.12216909152083      0.30478413054620
  F           0.26298448500443     -0.67039247975904     -2.98786266445881
  H          -0.85032948105914     -1.28749421019729     -1.46036088683489
  H           0.84735640175512     -1.86439990157475     -1.50484085483497
  N           2.67467217280356     -1.65711227776610      1.35972874037641
