18
Coordinates from ORCA-job NEB_product E -30.685986100840
  C           1.87611905578450     -0.59554602779214      1.42142415306807
  C           2.56160170754407      0.70788909651972      1.79301997192111
  C           2.64806410750187     -1.30852677464133      0.30847011466982
  H           0.89621433738933     -0.31150646452664      1.01397413610324
  H           3.09108677424107      1.18349540172273      0.94798994295572
  C           1.62331908432762     -1.45932126217253      2.67959825035567
  C           0.43648386571713     -2.37133536906437      2.50462165003655
  C          -0.61940269784799     -2.34991645445381      3.29443773922802
  O           2.52844703964418      1.20760196588898      2.87780564178894
  C           2.77600553811257     -2.26858205339272      3.01798237882277
  H           1.44566401079166     -0.77703870855250      3.52155207113723
  H           0.50154693311189     -3.07110332292667      1.68190377924467
  H          -0.69590594863654     -1.66732438961192      4.12495430712762
  H          -1.45156816629934     -3.01575482163781      3.14459557408074
  F           3.99043635384054     -1.32248231135035      0.57609675043788
  H           2.52872454350165     -0.78491047813721     -0.64699744131203
  H           2.33440977613047     -2.35190830455407      0.20249815822746
  N           3.65835368514534     -2.92882972131735      3.31727282210653
