18
Coordinates from ORCA-job NEB_reactant E -30.681900881600
  C           1.81137630176772     -0.14688414213284      0.24669168594430
  C           1.38803590029200      0.68474578192071      1.19064371358205
  C           1.75464974324462     -1.64187156457763      0.15076634276614
  H           2.28161498084953      0.30410919643844     -0.61389927677683
  H           1.52959787194793      1.74895275079541      1.05176659635657
  C           1.64527696053751     -2.76495534693828      3.78584473866550
  C           1.63631308894889     -1.47859714612230      3.43814687345323
  C           0.44461207529489     -0.77924803615135      2.85800928132081
  O           0.74172237445426      0.50859634902108      2.36949357772295
  C           2.77432644090597     -3.38304642053726      4.35720451117263
  H           0.78146095212161     -3.40302986853730      3.64690150599988
  H           2.51103309968497     -0.86032703244022      3.59117072953947
  H          -0.28475659323521     -0.60003557519061      3.65919826067468
  H          -0.04301539228278     -1.39383470685567      2.09093190698708
  F           2.63666546551365     -2.06516671894940     -0.81494795069511
  H           0.76724811107708     -1.99958086526836     -0.17380687736231
  H           2.05172266728700     -2.14939769075570      1.07538795012150
  N           3.68811595159037     -3.89632896371871      4.82149643052746
