27
Coordinates from ORCA-job NEB E -46.187459162420
  C          -0.16864994713055      1.07128264182214      0.08192759276272
  C          -1.52789625974871      0.87488276282285     -0.25678438816215
  C           0.68167124532253      1.77421193487898     -0.91155071098514
  H           0.04490357460169      1.42665394862479      1.08647114449524
  O          -2.50139138602837      0.83448089348291      0.68984476429936
  C           0.23540575212918     -0.96175069282594      0.26177851631031
  C          -0.17779820322917     -1.45551685981838     -0.97459389544355
  C          -1.52638668208915     -1.38253451838079     -1.33431014122401
  O          -1.84476767456174      0.38851554184410     -1.37596859094921
  C           1.64513490931630     -1.14370747535943      0.76787842055313
  H          -0.49582079521735     -1.02912806489077      1.06355356765639
  H           0.55010258334376     -1.59996876493511     -1.75623333428486
  H          -2.28563374506340     -1.57586902543382     -0.58712965011108
  H          -1.80840634656120     -1.64793493991741     -2.34176447133673
  Br         -0.00451806066641      3.68130014790055     -1.07977269790221
  Br          2.52023732102228      1.98455984649272     -0.29953410538361
  Br          0.71877230541216      1.07925810002620     -2.70700841401391
  C          -2.30580160384091      1.44003556805867      1.94853503845578
  H          -1.92137019471753      2.45868872581611      1.84792142165757
  H          -1.63313303232304      0.85153977213883      2.57995764871983
  H          -3.29023000175952      1.47286656471015      2.41208284801093
  C           2.67938592361642     -1.51108176601093     -0.28956776252557
  H           1.60328419036316     -1.95364507125278      1.50413236684708
  H           1.97326645560159     -0.25681051396233      1.31338945648353
  H           2.46609518420079     -2.49113474629658     -0.70853700519264
  H           3.66591183413367     -1.53972063142432      0.16564542940956
  H           2.70763265387352     -0.78947337811039     -1.10036304814677
