27
Coordinates from ORCA-job NEB_product E -46.245723434680
  C           2.34413042881101     -2.14413230658319      0.76164494949573
  C           1.03840409426225     -2.77843586260434      1.27422182279959
  C           1.96385616843094     -1.26408082071870     -0.41695089158620
  H           2.81125774367233     -1.50386166016864      1.51586253828548
  O           0.61743684187311     -2.53540121418782      2.51195359721778
  C           3.29629619044224     -3.31165419426690      0.40986335296943
  C           4.55703833962737     -2.84223235592646     -0.25198662848534
  C           4.93077003667867     -3.20442502417260     -1.46530522496681
  O           0.40018921498237     -3.50541491128679      0.56441207571359
  C           3.63825534864072     -4.08291937030169      1.69613121857817
  H           2.76066071066007     -3.99023998510287     -0.26301106755692
  H           5.18592579494278     -2.19672434696048      0.34861733978046
  H           4.32469396200000     -3.85192671371808     -2.07759722696025
  H           5.85345127055194     -2.85989610664516     -1.89873257603084
  Br          0.44964847155965     -0.10970741056901      0.10929758340336
  Br          3.40634545716276     -0.04298063536194     -0.91289236282385
  Br          1.43544903779038     -2.24921826479825     -1.98658591791332
  C           1.26729429229034     -1.66327130315241      3.41838838631239
  H           1.29934919221846     -0.63904020227717      3.03875057833241
  H           2.27318161935555     -2.01303971715687      3.66299459178645
  H           0.65382423231766     -1.68552223639182      4.31741114053427
  C           4.42426694456195     -5.35145510448429      1.39069889434073
  H           2.71496619967056     -4.35565545663801      2.21374748038295
  H           4.22684710901061     -3.44117690937333      2.35844413091841
  H           3.84172655821069     -6.01311865213041      0.75445016964423
  H           4.65860975998132     -5.87857741225243      2.31204580094228
  H           5.35422498029426     -5.11309182277033      0.88022624488584
