23
Coordinates from ORCA-job NEB E -47.391139309020
  C           0.06648667866385     -0.72892526830864      0.72566295300847
  C          -1.25850629962800     -0.57590467512485      0.27865466863197
  C           0.33346448985622     -0.32160648926417      2.16084730433437
  H           0.52910672028484     -1.68021149480844      0.47714283947104
  C          -1.83406375633597     -1.52306667074914     -0.74806887449749
  C           1.00211915742424      0.64414794482702     -0.27391990290660
  C           0.03605778012109      1.48198382172346     -0.85345090098535
  C          -1.01318064537282      1.90536443934485      0.01132072576401
  O          -1.85576231360933      0.57237817065430      0.37953210965307
  C           2.00944578936475      0.00709064554119     -1.18739102730066
  H           1.50086178775186      1.04906203825600      0.60319260215370
  H          -0.22178541451315      1.32711395700690     -1.89460122496251
  H          -1.78533008296194      2.52337794681067     -0.43099047461709
  H          -0.70473039115686      2.27327351225331      0.98709015175977
  F           1.66604469704520     -0.12726313304177      2.41483181680731
  H           0.00992821076414     -1.13241308843826      2.82330208344570
  H          -0.18447291567318      0.60358997203137      2.43041823129823
  F          -1.27688288241116     -2.76473099436885     -0.64120864460592
  H          -1.63846028786752     -1.16100362883934     -1.76798369210606
  H          -2.91447900633876     -1.62434804133058     -0.60280998232230
  Br          3.12389684949183      1.43549062026380     -1.97424992077552
  Br          3.21664688752165     -1.21015938748032     -0.25884260453566
  Br          1.19359494757902     -0.97324019695848     -2.65847823671250
