23
Coordinates from ORCA-job NEB_product E -47.439488696670
  C           2.60630259884104      0.54552798906927     -1.65273340529376
  C           1.31902024946846      0.17864025949372     -2.39366764540850
  C           2.19986265980856      0.90027667617978     -0.21487609163114
  H           3.27392793778148     -0.32123606951636     -1.61096824577597
  C           1.30478846513394     -1.25402725190229     -2.89882717006884
  C           3.38287325282746      1.74307243937048     -2.24899698861882
  C           2.55106393966217      2.99587880452190     -2.31200565188874
  C           2.94812253150649      4.14500640480829     -1.79775701368468
  O           0.38905143121733      0.92746920325514     -2.49378755149362
  C           3.97317470729166      1.46078666977774     -3.62699615233855
  H           4.23806087371423      1.91970433805936     -1.58016555647294
  H           1.59710271509286      2.90655837091324     -2.81187913589040
  H           2.33845989986187      5.02865975254746     -1.86527040124024
  H           3.89342912815973      4.25159300020305     -1.29003708670227
  F           3.31781304791513      1.12044641017156      0.54247544604625
  H           1.65337777528309      0.07596091540548      0.25337077412881
  H           1.60032907542100      1.81491299169618     -0.19036958235778
  F           0.10528411867704     -1.57004502198756     -3.45614342545284
  H           1.47382449539155     -1.94345252102449     -2.06170821045409
  H           2.07727165340207     -1.41196137187418     -3.66133479649776
  Br          5.17025166570755      2.92081615562658     -4.13370325397629
  Br          5.05124444896356     -0.18085254385843     -3.63942119627489
  Br          2.62146332887172      1.28976439906410     -5.02829765865293
