22
Coordinates from ORCA-job P E -31.809387583530
  C          -1.26836350816271      0.69648030351235     -2.01238408054063
  C          -0.89077788971929     -1.15428880339822      0.31166648025332
  C          -1.83820509554848     -1.41469582680168     -0.81888766236182
  C          -2.00423516250824     -0.60115375578339     -1.84683935840559
  C          -0.65832623471893      1.15052627513670     -0.67942814282795
  C           0.08802815911839     -0.01895478975684     -0.02151123883968
  H          -2.40475455775531     -2.33200741464902     -0.74933229722554
  H          -2.70568652775862     -0.83772322136805     -2.63264785731968
  C          -2.18118277417763      1.78235411142687     -2.57769701705000
  H          -1.46430083240443     -0.88273140427604      1.20430528208320
  H          -0.45871641307915      0.54862274485949     -2.74144453382183
  H          -0.33802647638813     -2.06806836377122      0.54710817800229
  H          -1.45637996517722      1.47369856568889     -0.00715111049819
  H           0.58047061178961      0.32689963311327      0.89603201790702
  H           0.02735042868863      1.98501524490719     -0.83617256162447
  C           1.12058530541909     -0.50038532608978     -0.90964217232374
  O          -3.35986648118807      1.61676965530210     -2.75204879643474
  C          -1.49375444290666      3.08898086451748     -2.88862760058847
  H          -0.48768449671833      2.93209781534613     -3.26676246010976
  H          -1.43397626588839      3.67922897551327     -1.97519027971483
  H          -2.08305794639646      3.64771450253014     -3.61130374484355
  N           1.93541056548032     -0.87541978595965     -1.61834104371533
