22
Coordinates from ORCA-job TS E -31.707140087950
  C          -0.49869222884149      0.19312537032150     -0.74368634968895
  C           0.82354253600430     -2.22881996092803      0.09494292933464
  C          -0.50818916014820     -2.17572444141389     -0.15066593116373
  C          -1.15496120706913     -1.00081457060567     -0.58231135818467
  C           0.08268722321392      0.54469215544855      1.36379484457773
  C           0.80718760842435     -0.52036009260836      1.81748028043600
  H          -1.13595262241041     -3.00202693697111      0.15485236689947
  H          -2.23657258402165     -0.97996764912051     -0.59354564941935
  C          -1.27813657423197      1.41235408882594     -1.05414568019922
  H           1.26444144598555     -3.09295398870454      0.56413422674603
  H           0.54975269918079      0.21544644497388     -0.99944322761673
  H           1.51900790732664     -1.55194013416816     -0.36777787445569
  H          -0.94632714785551      0.66050270773423      1.65707057730663
  H           0.35370751357018     -1.29851580574932      2.41299177911004
  H           0.59491044611296      1.43805657177227      1.04722678605538
  C           2.21293063696656     -0.51024684810014      1.77122899650243
  O          -2.45690696022248      1.51042887293735     -0.79826396253517
  C          -0.48814714620266      2.51788137133439     -1.70905694680355
  H           0.36147202855581      2.79468173893883     -1.08841636498223
  H          -1.12078036332862      3.38664769304537     -1.86908859356741
  H          -0.10505596707196      2.16804463228558     -2.66621245898600
  N           3.36008191606302     -0.48049121924816      1.73889161063435
