16
Coordinates from ORCA-job NEB E -26.898894668760
  C           1.22565482914889      0.66628653574335     -0.47983903525404
  C           0.54880916313156      0.94838550191945      0.70020252462219
  O           0.83065799661965      1.22517243885487     -1.65478728883140
  H           2.29112036691751      0.48673136332123     -0.44971834704563
  O           1.15669365420983      0.60014352409718      1.87811749251939
  C           0.38329648902663     -1.23572897084410     -0.61012231929050
  C          -0.95468765252417     -0.92128166067279     -0.65730577802481
  C          -1.54222079426437     -0.33088216492859      0.49911299962837
  O          -0.73865745648620      1.11209544554492      0.68488433069550
  H           0.87777182763211     -1.57913741689075     -1.50520612412834
  H           0.81824789143602     -1.59265158241042      0.31213079548801
  H          -1.41777799674246     -0.73067836273953     -1.61521310268207
  H          -1.31661483211257     -0.80885481667186      1.44864795612122
  H          -2.57025244085790     -0.00024004174657      0.42867090366574
  H          -0.09987593241366      1.48236584974195     -1.56932755020822
  H           0.50783488727912      0.67827435768166      2.58975254272460
