16
Coordinates from ORCA-job NEB_reactant E -26.916862505790
  C           2.02059189671035     -0.06784725571166      0.03381663665938
  C           1.31420549453399     -1.11354601346022      0.46207304668579
  O           2.26225132027628      0.19485942826455     -1.29308501553823
  H           2.45540607357787      0.65934631066846      0.69682655736220
  O           1.06794487461615     -1.38862223313680      1.78220579531144
  C          -0.41501093966488     -5.23315997337125     -1.11173009703958
  C          -0.43984661202037     -3.91611713803128     -1.04843535274370
  C           0.10144724385571     -3.11939212047551      0.09550439285034
  O           0.78183801815469     -1.99186666781450     -0.43713440310459
  H          -0.83781298915711     -5.76874670328601     -1.94377666283387
  H           0.01937126632164     -5.83134488537320     -0.32769254702604
  H          -0.87237084623822     -3.32261430139471     -1.84141921599185
  H           0.78337913591035     -3.71867201978541      0.71007176898666
  H          -0.72517045564532     -2.77756494058683      0.73560461837013
  H           1.84884634167873     -0.50746247936620     -1.80916186058240
  H           1.47753017709012     -0.71054900713944      2.32773233863432
