22
Coordinates from ORCA-job NEB E -31.826813984310
  C          -0.68185880554167      1.20225652509146     -0.61633570450285
  C          -1.99604865155170      0.93670518032850     -0.21387273907429
  N          -0.16874078077486      0.62428567328387     -1.77909624516236
  H          -0.27230653484315      2.18129556367937     -0.39892629674744
  I          -2.75131244301098      2.27322723685231      1.35744435186925
  C           0.18735759804406      0.04586522071769      0.83990968640266
  C          -0.41052716522918     -1.17542552366562      0.55497102517989
  C          -1.78054059282013     -1.35018555672182      0.80156745411661
  O          -2.52728009559667     -0.19207658229864     -0.30504443302816
  C           1.66688777786545      0.29092910148008      0.67801527659828
  H          -0.22536481117933      0.60487691585081      1.67470475680391
  H           0.06225683614199     -1.83249157361947     -0.15905401350033
  H          -2.19925082474900     -0.92767124383974      1.70768992424494
  H          -2.25324974889127     -2.26853656912311      0.48589489919786
  H           0.09595036110321      1.28445258383197     -2.49434376908069
  H          -0.74911302188744     -0.12270920591825     -2.13689345060810
  C           2.37584012430452     -0.60021586505970     -0.33352210480233
  H           2.11745311989092      0.13881228422024      1.66484765810595
  H           1.83444209085188      1.33790585247725      0.41764735325166
  H           2.35394557680564     -1.63951210552655     -0.01582171284005
  H           3.41623838559820     -0.29601362657722     -0.42114438305790
  H           1.90522160546949     -0.51577428546343     -1.30863753336651
