19
Coordinates from ORCA-job NEB E -41.062996073630
  C           1.16957815481772      0.35629550563651     -0.74454960994995
  C           0.21349498197358      0.90340203611536     -1.62426955116951
  N           1.62919463106924     -0.90679935512454     -0.98436313210950
  H           1.90224309138459      1.02722342480585     -0.31354234452998
  Br          0.06689079647189      2.86495576779846     -1.51565509807853
  C          -0.25601520594027      0.26608872233655      0.80109015364235
  C          -1.25398801021973     -0.51645610179918      0.21844155271257
  C          -2.02710935126846      0.00973827259477     -0.81522387982078
  O          -0.75646599914717      0.28303317355772     -2.08680745174435
  C           0.48263668822814     -0.24340059048794      1.99750601601068
  H          -0.41941700856985      1.33662870686487      0.86741773069483
  H          -1.20113975051116     -1.58964419434551      0.33443101670590
  H          -2.32756098974035      1.04809743618453     -0.77081963514193
  H          -2.71127029886727     -0.63726091640432     -1.34061101591181
  H           2.23374778069997     -1.31522371993181     -0.28982966818633
  H           0.95919975077347     -1.54645710115056     -1.38687219727368
  Cl          1.95525273772908      0.69751823466637      2.33846106685982
  Cl         -0.59349728805268     -0.08042513429692      3.43756927340093
  Cl          0.93422528916926     -1.95731416702020      1.87762677388929
