19
Coordinates from ORCA-job NEB E -30.930735998120
  C           0.44463161999215     -0.38455035560888      0.91720498805881
  C          -0.98275742113838     -0.89497223357966      0.97292073702570
  C           0.48012444502255      0.92038850207937      1.53589959923125
  H           1.11313556535982     -1.05061715168543      1.47052212785359
  C          -1.25935731442193     -1.99297925646397      1.77128774860138
  C           0.78307189081197     -0.32374725581039     -0.58423058913084
  C          -0.53965162900360     -0.17920691478898     -1.24867937131621
  C          -1.68454125049980      0.52433352141380     -0.60141936835814
  O          -2.00645689498903     -0.07376628716485      0.61740114621990
  C           1.79681056244648      0.74887548639913     -1.01058571603379
  H           1.20505473701576     -1.29976978332160     -0.84945505886205
  H          -0.50707712545938     -0.08432055131757     -2.32759477485944
  H          -2.58933313923681      0.47363640091336     -1.21475144354107
  H          -1.43935728462410      1.59275611561864     -0.46888241029652
  N           0.47686646942099      1.96270916832507      2.00471980259312
  N          -1.43303733678277     -2.96803685871115      2.36630055299670
  H           2.74278039009840      0.59613039900049     -0.49647494062724
  H           1.42877880092943      1.74431108505806     -0.77221591693801
  H           1.97031491505826      0.68882596964458     -2.08196711261713
