19
Coordinates from ORCA-job NEB_reactant E -30.985507327090
  C           2.09558961854024     -0.27801584074703     -0.42584250994911
  C           1.47749172928740     -1.23462184937822     -1.16028338129472
  C           2.27754425408140      1.06904813666209     -0.75994182388267
  H           2.50507767188256     -0.56248494275072      0.53466902474339
  C           1.43350483749750     -2.54253073969920     -0.58858199909135
  C           3.29260960853600     -0.37911335716865     -3.67515572592884
  C           2.25632270158411      0.43703136163772     -3.58222766900636
  C           0.89604294946659      0.04896128357004     -3.07493753871506
  O           0.87585156655819     -1.16982904721788     -2.35253821173520
  C           4.63560026360472      0.02345639007369     -4.17719344821342
  H           3.20187576617291     -1.41678717135906     -3.37602912632363
  H           2.33536105556226      1.47254548893761     -3.87898833829306
  H           0.21619375342958     -0.12870472582921     -3.91607540383724
  H           0.47953087800384      0.85790983940559     -2.46156720086103
  N           2.46140803013947      2.18426156122103     -0.96734131788729
  N           1.41964653605851     -3.57857178412468     -0.10243176739150
  H           5.38791165081108     -0.14371123167164     -3.40693526838774
  H           4.64750933847651      1.07274681760466     -4.45867765481320
  H           4.90872779030711     -0.58159018916613     -5.04102063913196
