19
Coordinates from ORCA-job NEB_product E -30.978275430820
  C           2.88160815803779     -0.77651285754782     -1.61893713125660
  C           1.61376292073194     -1.54468564239572     -1.25064685124243
  C           3.05293322713828      0.34520754448475     -0.72305851651085
  H           3.72476627472955     -1.46352188723593     -1.44978655331384
  C           1.51429509495940     -1.76056281363398      0.18418008855834
  C           2.86676950891006     -0.32654202072394     -3.09979956163771
  C           1.81104543372171      0.72167999296472     -3.30923234663830
  C           0.76111390676750      0.56418690397941     -4.09121945784074
  O           0.80663203065852     -1.95077383154953     -2.03861537051262
  C           4.24252052843978      0.20810524469145     -3.49664345988687
  H           2.62395403753790     -1.20562570668099     -3.70597389310770
  H           1.96761277471668      1.64538037798292     -2.76655684939256
  H           0.58764637726958     -0.35194793811152     -4.63122359477969
  H           0.02739157849588      1.34109446748099     -4.21889445550552
  N           3.18876217216709      1.24513857967121     -0.03320271163744
  N           1.45989855626787     -1.92462954037295      1.31500414127331
  H           5.00680971241909     -0.55842471261969     -3.38145926734312
  H           4.51288304257827      1.06427031972887     -2.88127234013298
  H           4.22639466445312      0.52376351988774     -4.53686186909266
