18
Coordinates from ORCA-job NEB_reactant E -34.739998750790
  C           1.69532760012151     -0.01785285406551     -0.11995720023456
  C           1.46312687569560     -0.53840780102415     -1.33616729010187
  C           1.64798523775231      1.33605949126257      0.23215843987841
  H           1.91102429675742     -0.68905891228909      0.69787754198229
  Cl          1.48933182854554     -2.25555857473389     -1.52686694375330
  C           3.49515646555278      2.68029173769646     -2.17969236237501
  C           2.86443996410530      1.72314876989569     -2.83790017237078
  C           1.40057106148925      1.42449599571806     -2.70917483539561
  O           1.17430694502039      0.02888599583412     -2.50473978347621
  C           4.94582266190696      2.98990535404874     -2.36040171166853
  H           2.97993514759013      3.30203994640536     -1.46075980810811
  H           3.39179513347446      1.08801859870728     -3.53813934583098
  H           0.89202410589617      1.62852313927148     -3.65712744564041
  H           0.93843398013938      2.01736344046518     -1.91645074288579
  N           1.61049477656026      2.42883401951095      0.58509999923380
  F           5.55731082768772      3.16899658900806     -1.14413192376701
  H           5.07443727678902      3.93180146839529     -2.91007703752800
  H           5.48017581491580      2.18321359589337     -2.87274937795832
