42
Coordinates from ORCA-job P E -46.663374316740
  C          -1.70930240096788      0.34489076877438     -2.37396015429128
  C          -0.11603506364607     -1.60174937509132     -1.23621495385047
  C          -1.57823675622949     -1.87519407931001     -1.38130630918228
  C          -2.34662437227030     -0.92858528593285     -1.89723798475096
  C          -0.75127950632043      0.88221569922441     -1.28931630390181
  C           0.01579949111523     -0.23277572553827     -0.53654378715615
  H          -1.97618662182888     -2.81625308323435     -1.03353160977955
  H          -3.41055458483810     -1.06442547195622     -2.00386894527897
  C          -2.72122353001167      1.40044908665685     -2.88310518927139
  H           0.38230785215953     -2.35686339824764     -0.62987215728575
  H          -1.08518604805061      0.07477942689157     -3.23918352677953
  H           0.34616849533647     -1.59533572415552     -2.22130041156746
  H          -1.32332587999645      1.45414550087747     -0.55818386064251
  H          -0.50736435579863     -0.38600743413602      0.41468855872865
  H          -0.04184102651328      1.56593619645458     -1.75243733808985
  N           1.39188332596996      0.07372510517217     -0.14853651416395
  C          -3.76434910756350      1.76118843931297     -1.82249012587001
  C          -1.98391741669517      2.67728396833216     -3.30452666311483
  C          -3.43583950319729      0.84182011389504     -4.11995939968577
  H          -3.29715177698387      2.19426754356411     -0.94168833765134
  H          -4.33135129208768      0.88816767943724     -1.51171060039415
  H          -4.46188223793199      2.49282804652670     -2.22522137955120
  H          -1.56512563059787      3.19424514933065     -2.44538649346986
  H          -2.67323915087936      3.35763295295065     -3.80052130550732
  H          -1.17820770697739      2.44650339721706     -3.99882340940952
  H          -3.97513037975087     -0.07258203769742     -3.88912918139224
  H          -2.71857122241350      0.62210725676192     -4.90832424855667
  H          -4.15023072332216      1.56804551033150     -4.50219026335922
  C           2.30823960673121      0.67914810649115     -1.11916119464960
  C           3.75162739111038      0.50794832276566     -0.62224923630620
  C           2.23519443595575      0.06638279032284     -2.51597583724737
  C           1.42588303717512      0.81257299628639      1.10052402050257
  H           2.10773448539528      1.76629810920967     -1.21141736159173
  H           3.90097996070966     -0.51704779110452     -0.29364705023100
  H           3.98763049511415      1.17901197400024      0.19812769947617
  H           4.44634651303699      0.72040146934359     -1.43103406186443
  H           2.48351347023914     -0.99048249096444     -2.47383525331096
  H           2.96310107169877      0.56413784796909     -3.15451185347268
  H           1.25909450958719      0.19229166562718     -2.97108695916910
  H           0.75850550092236      0.34232621912110      1.82027997096144
  H           1.12483519939351      1.86592540839714      0.98207261583711
  H           2.42804145322173      0.78705514612307      1.52049639629120
