42
Coordinates from ORCA-job R E -46.598621111050
  C          -1.86370219449069     -0.23625404668641     -2.98766155376414
  C          -0.16253760144103     -2.52602221585544     -1.97214557140632
  C          -1.12369106560343     -1.89310235818840     -1.30768665726236
  C          -1.83115020314349     -0.69914895922534     -1.73976382731451
  C          -0.74660682435323      2.10734203412225      0.37874235683062
  C          -0.03107200746799      1.06858426081567      0.80700947175059
  H          -1.41986971883947     -2.26794929435284     -0.33521554819066
  H          -2.36854152544910     -0.18547439683159     -0.95626415568845
  C          -2.58428967402259      0.98496985961505     -3.48865430632021
  H           0.30801401527011     -3.41137499147582     -1.57842182713675
  H          -1.33788542058746     -0.77798909230319     -3.76415710336736
  H           0.19392926964162     -2.18628364316916     -2.92974076630433
  H          -1.71611223991252      2.29508647666840      0.80309261969328
  H          -0.47222757152923      0.41784796761569      1.55233383696926
  H          -0.40980419095912      2.81188970325428     -0.35987112033253
  N           1.25516363164582      0.70879470407192      0.49292933432768
  C          -3.34266202725579      1.72231367922968     -2.38641344347622
  C          -1.54651600925019      1.93326491095238     -4.10622904351687
  C          -3.57057998349341      0.53954314544278     -4.57777925338234
  H          -2.66003134166480      2.04170297204421     -1.60308800165127
  H          -4.10754063899073      1.08423161797247     -1.94997695319431
  H          -3.82953457089163      2.60393230484759     -2.79835284340005
  H          -0.85386593136463      2.28226538639211     -3.34389179944290
  H          -2.04028572590923      2.79726588352051     -4.54580374380133
  H          -0.97679596469290      1.42948400632595     -4.88428232932216
  H          -4.30350042191338     -0.15034744531355     -4.16474780809126
  H          -3.04795508552640      0.03884493414080     -5.39003080391547
  H          -4.09703622939958      1.39968792754947     -4.98591518624850
  C           1.96154818080255      1.40145464615191     -0.56898480271840
  C           3.46655946661095      1.45666317142737     -0.29952034929766
  C           1.67663951355954      0.79880007309472     -1.94905944354750
  C           1.65854767003652     -0.64574286842099      0.78633157137415
  H           1.59025174293462      2.43008017350669     -0.55187201241027
  H           3.93862055403506      0.49324066627422     -0.47493082893154
  H           3.65452710555211      1.76380896566106      0.72644215021662
  H           3.92576078537829      2.18181611191700     -0.96665946414447
  H           2.13368230033229     -0.18366794899438     -2.04013624020621
  H           2.08133089362796      1.44001212657778     -2.72817304233838
  H           0.60409139562754      0.69562119479692     -2.09600148978468
  H           1.14053660579702     -0.98977626780253      1.68028136681004
  H           2.72921104819181     -0.68105591788964      0.98324620074790
  H           1.42395998910819     -1.33707945747958     -0.03222758881073
