42
Coordinates from ORCA-job TS E -46.577556234980
  C          -1.37055290690206     -0.28268074266216     -0.58427619438417
  C          -0.18734097693831     -2.62728740318462      0.63046545555559
  C          -1.52401162875675     -2.45190131692543      0.50874756130905
  C          -2.11977144176971     -1.35862121553849     -0.14529640566300
  C          -0.62930365753341      0.43697185798193      1.21545893071370
  C           0.32976793540931     -0.39708181419494      1.74804570170427
  H          -2.18331107736340     -3.12565083651285      1.04328980188370
  H          -3.19280441165695     -1.26088623061162     -0.06109329207507
  C          -2.02547186007102      0.85142927139072     -1.36110587130167
  H           0.20860179075140     -3.43418596732006      1.22557086715486
  H          -0.37354165280545     -0.50050710690182     -0.94345892132205
  H           0.51252080954271     -2.13606022092754     -0.01753397162888
  H          -1.57409053588796      0.45572792354937      1.72920118962472
  H           0.05730463287698     -1.08310509431764      2.53306323326207
  H          -0.33034593932798      1.37591299270376      0.78799930255901
  N           1.67794532291815     -0.32994547085969      1.51798866650313
  C          -3.11639445734818      1.56481536141304     -0.55935675228015
  C          -0.98653658876160      1.88034874992734     -1.82136887855381
  C          -2.65522721631143      0.23152136280668     -2.62057829825293
  H          -2.69393930149532      2.07754554651057      0.30056987393236
  H          -3.86252832655759      0.85928834747785     -0.20510821639869
  H          -3.61612870954364      2.30203500223372     -1.18509710425970
  H          -0.56121635615776      2.42611123716338     -0.98234628467749
  H          -1.45093522681963      2.60779679645346     -2.48449735817961
  H          -0.17830613854239      1.39459409276173     -2.36527333293358
  H          -3.43310165220390     -0.47739859151645     -2.35171486389930
  H          -1.90109525952083     -0.29604153171230     -3.20071195367262
  H          -3.09361885135661      1.00628547346150     -3.24709157255606
  C           2.24308485878093      0.42610336484425      0.41674430451136
  C           3.09087195316489      1.58973024584576      0.94373996439568
  C           3.05720817154331     -0.44513324834082     -0.54447519741253
  C           2.53187309937418     -1.26608891800674      2.20211403855813
  H           1.40659134723654      0.84408596884426     -0.14583802299599
  H           3.97449451472406      1.22754961854970      1.46350474579924
  H           2.50654978951913      2.19165715826878      1.63532322857836
  H           3.41443531011691      2.21938742786434      0.11899506479384
  H           3.96184038196631     -0.82153776293932     -0.07391755483916
  H           3.34503556908796      0.14473767810951     -1.41135161714866
  H           2.46550391448772     -1.29052954200060     -0.88850949450011
  H           2.14773661089391     -1.44580170048114      3.20554321647340
  H           3.53558238363640     -0.85409028424838      2.29279977309527
  H           2.59262577760112     -2.22910047895903      1.68083623852754
