20
Coordinates from ORCA-job NEB E -44.050965412080
  C           0.40085953607605      0.86361672179660      0.33100167388664
  C          -0.84769463841038      0.25874751934698      0.57322666686038
  C           0.39277724326882      1.95215553815864     -0.72342653441027
  H           0.98305394590896      1.14964928260884      1.20371724530385
  C          -1.20137364490024     -0.22586756321617      1.94689125597536
  C           1.42525700841466     -0.53404674777969     -0.49870514767763
  C           0.54207979708869     -1.57703128555819     -0.81389103567925
  C          -0.66969625793123     -1.20594488855922     -1.46248174904305
  O          -1.50164228312713     -0.29050864497874     -0.40031899818103
  Cl          2.74773627383852     -0.90405295804432      0.57713839315898
  H           1.77402703341699      0.09461215532170     -1.31021649493292
  H           0.53494674404863     -2.45506784086620     -0.18329252574508
  H          -1.37999976488780     -2.00093737764685     -1.65773069857775
  H          -0.57740367552893     -0.51964831918289     -2.30027667010323
  F           1.65672021823749      2.28488593249952     -1.12400824161116
  H          -0.04517022379767      2.86114346380651     -0.29285369137862
  H          -0.16801073094538      1.66014062711522     -1.61641368591242
  Br         -1.03170755766382      1.19940850670486      3.25371459918546
  Br         -3.01700478902359     -0.88815040742925      1.95456803693652
  Br         -0.01775423408263     -1.72310371409735      2.54335760194524
