20
Coordinates from ORCA-job NEB_reactant E -44.086335986080
  C           2.08904150757727     -0.35062467730742      0.13092617023111
  C           1.43599677607167     -1.50592362464441      0.25329479444018
  C           2.29586994534650      0.36065993056966     -1.16854137320136
  H           2.51709789591435      0.11106125706731      1.00843372255357
  C           1.22202518280272     -2.11107771025497      1.62212499745565
  C           3.95343721888608     -3.44803443793541     -0.93927371963846
  C           2.67559215631461     -3.76213556212957     -1.09200694109425
  C           1.70202693245468     -2.81805073162112     -1.72882702383508
  O           0.84897930843372     -2.21349853967509     -0.74096636857914
  Cl          5.07987201280922     -4.47652411729806     -0.16277012912851
  H           4.38171375370127     -2.52557349811429     -1.30555286297516
  H           2.27498079086136     -4.68740632227678     -0.70415820330318
  H           1.00200823630935     -3.35064528247372     -2.37490498166908
  H           2.23280374750641     -2.05617457174164     -2.30359305883808
  F           3.47610642223589     -0.04209497970129     -1.76361059656060
  H           2.38177047412047      1.43867906073073     -1.00841275712616
  H           1.49249455315158      0.14366647111740     -1.87993892898774
  Br          0.34189480300659     -0.84488552808236      2.82106419423804
  Br          0.13286642890885     -3.69407884018846      1.51081639888593
  Br          2.94522185358742     -2.60243829604054      2.42669666713232
