19
Coordinates from ORCA-job NEB E -32.887960100200
  C           0.44462304692292      0.94140905664714     -0.18467079985422
  C          -0.79077912069373      0.75974824502208      0.46085585603271
  C           0.44196910341773      0.92360973647309     -1.69074375449714
  H           1.09856438030203      1.70226160584057      0.23128861112987
  N          -0.98171828879698      1.22782696981541      1.74291582575544
  C           1.21782044917957     -0.78615430868260      0.31537676994150
  C           0.32299884725858     -1.72546523450590     -0.17801801995112
  C          -1.00990673983377     -1.64075246681313      0.34889568333790
  O          -1.59213425130403     -0.18781178515627      0.05109293128737
  I           3.22718732287399     -0.82827329880500     -0.38892970792579
  H           1.22878110899872     -0.59172666693832      1.38044881829284
  H           0.45723673581119     -2.11782022498933     -1.17403684751286
  H          -1.07793466590055     -1.67536024873676      1.43588040173421
  H          -1.73872519249937     -2.29058970477641     -0.12236333406933
  F           0.04480442301382      2.16044236511970     -2.15465203443536
  H          -0.27863610906581      0.19755723326166     -2.07735477441218
  H           1.43643471048787      0.74904238007810     -2.11097356654768
  H          -1.90269900806921      1.08028147623674      2.12538128710013
  H          -0.54788675210297      2.10177487090922      1.98960665459370
