19
Coordinates from ORCA-job NEB_reactant E -32.910372791900
  C           1.57367902991304      0.03932485800618     -0.06997490831034
  C           1.71531581217425     -0.61244578168976      1.09170831362194
  C           1.07841894074562     -0.61436402485562     -1.31272568568270
  H           1.86822514002521      1.07365858809111     -0.13284880771587
  N           2.22755449505066     -0.04230453736058      2.24074415274255
  C           3.93488748437371     -3.99169675322350      2.29795298677465
  C           3.54081170980921     -2.91288865004140      1.65316588119873
  C           2.31682807656643     -2.88167940930306      0.78491640275804
  O           1.36540464393190     -1.93248016279794      1.25457757815466
  I           5.64511967615772     -4.03864792725897      3.52250270177041
  H           3.42900578753389     -4.94061651091381      2.24061537619933
  H           4.06987451765212     -1.97416023363268      1.73954525751567
  H           1.79545311748389     -3.84150221729152      0.80350449640018
  H           2.61595676244866     -2.64851593484143     -0.24453327281758
  F           2.12945790318415     -1.09111541626349     -2.09391330109838
  H           0.53545214594680      0.09049588582534     -1.94839509704003
  H           0.45352867207307     -1.48437836623216     -1.08787926743331
  H           1.96843528834161     -0.51723238373621      3.09222816357763
  H           2.19149079658807      0.96274897751949      2.29420902938442
