17
Coordinates from ORCA-job NEB_product E -35.951322432680
  C           1.67641157968847      0.57504487301217      1.51652258489049
  C           1.09056084399812      1.07039519650056      0.18900672445168
  C           1.32359379829084     -0.89482514675115      1.67104991722413
  H           2.76934961851777      0.63515597054432      1.45339815851856
  H           1.84949918445920      1.43035369230798     -0.52690233735903
  C           1.18272740690512      1.55004172567769      2.60824056760194
  C          -0.10107287006509      1.20628123502051      3.27399050372092
  C          -1.19681043740951      1.92996264919203      3.12624449452826
  O          -0.07689409327284      1.09417541545149     -0.05404780428398
  I           2.72805687348663      1.84637671735041      4.13705406348040
  H           1.09994196478524      2.53580752961768      2.14312603177779
  H          -0.09196430380715      0.34881561366827      3.93298393752667
  H          -1.22660532062964      2.79821781744709      2.48872592663949
  H          -2.11303211693463      1.66382057798482      3.62205729794165
  Br          2.21924582552396     -1.84950888184527      0.18761408682219
  Br          1.99983972092293     -1.65123500448934      3.33382606896072
  Br         -0.56914767445943     -1.31357998068927      1.53860977755813
