17
Coordinates from ORCA-job NEB E -31.814202386110
  C           0.73640956313183      0.51331404671771     -0.49393533300788
  C          -0.65550713001546      1.08901971514626     -0.54880690942467
  C           0.93007027080711     -0.26953333512322     -1.69583707599674
  H           1.49197687160538      1.30712186862160     -0.47671207058873
  C          -0.98583650596362      1.84195248511823     -1.66692645012230
  C           0.95907948861002     -0.41332643015289      0.78845230624498
  C          -0.32150388996082     -1.10764489651086      1.04603244289205
  C          -1.41314041451207     -0.18290048826390      1.36853903824424
  O          -1.60272472389365      0.84759039339855      0.33666627491888
  O           2.08372181625025     -1.21484274136409      0.62904152661461
  H           1.19677914952061      0.26644958002249      1.61784535847704
  H          -0.53618082745393     -2.00367033225965      0.48481719094339
  H          -1.22016301179714      0.38130728537985      2.29147097981796
  H          -2.38563384612924     -0.67120142325120      1.44224781381202
  N           1.05527734224806     -0.95957388883838     -2.59854515420410
  N          -1.21813256084156      2.53076345369734     -2.56598584400640
  H           1.88550840839422     -1.95482529233785      0.04163590538566
