17
Coordinates from ORCA-job NEB_reactant E -31.889194510070
  C           2.04836806869393      0.08917733627056      0.44116852253684
  C           1.53350880920938      0.84914951124105      1.43754601504152
  C           2.12334005240928     -1.30732754796202      0.38561959498614
  H           2.45910504988440      0.59556203852663     -0.42247120424841
  C           1.58716239859526      2.26380818890160      1.24808795446284
  C           3.27498527972140     -0.83535575677701      3.58371174685870
  C           2.18639355074238     -1.50939971941562      3.23741549991537
  C           0.86211179222249     -0.86595388442085      2.94536370113851
  O           0.95705744737702      0.50351721872264      2.59414416316426
  O           4.48535579707277     -1.36814653321332      3.83842507638258
  H           3.29006755938719      0.24068609068976      3.69276439124677
  H           2.20570484203897     -2.58479293434173      3.13659210435219
  H           0.22446123754190     -0.86455723675686      3.83709716254156
  H           0.34507328638300     -1.42279755173810      2.15366351211581
  N           2.21382706705097     -2.44707825323925      0.26876262152698
  N           1.64897063756315      3.39132592775376      1.06246401053191
  H           4.45760712410650     -2.32751689424126      3.72534512744642
