23
Coordinates from ORCA-job NEB E -44.595815451240
  C           0.48419127200631     -0.73249716833126      0.60273076695830
  C          -0.74193646516080     -1.27712911403526      0.18050798421609
  C           0.57399966575140     -0.16721535964763      1.99565426203935
  H           1.36403354012839     -1.29527201150560      0.30877488793338
  C          -0.79577157496185     -2.28567950238334     -0.94758954392395
  C           0.47293766952970      0.78701670949479     -0.58055771986931
  C          -0.72311802397231      1.44389773132324     -0.25302994362470
  C          -1.94104536194111      0.74219316932602     -0.45815731224991
  O          -1.84190446994818     -0.62490405430383      0.42328090189843
  C           1.76205868375785      1.56129528527828     -0.47888146323408
  H           0.48416314003897      0.21473618354459     -1.50524975998325
  H          -0.69794735243413      2.22432176164761      0.49078821189837
  H          -2.09487945879783      0.31706353883988     -1.44760030959903
  H          -2.83647600517506      1.20857121345884     -0.06693041911861
  H          -0.30156341740764      0.43107072172512      2.23024350080382
  H           1.47149578737379      0.42701334450830      2.12729536050865
  H           0.61755023050269     -0.99884096789301      2.69830168997085
  F           0.45213145265114     -2.63577048670494     -1.39019991893783
  H          -1.34370227217940     -1.87537748758005     -1.80782194019616
  H          -1.29352050693345     -3.20527603783609     -0.61839844990213
  Cl          1.90756318236059      2.54281308347773     -1.98012263687811
  Cl          1.83079463982898      2.69026385612569      0.88242988504338
  Cl          3.19094564498194      0.50770559147092     -0.40546803375355
