23
Coordinates from ORCA-job NEB_reactant E -44.623493679920
  C           1.66657689135903      0.15168344026080     -0.16088824495345
  C           1.44754447728659     -0.10554072904946     -1.44531798225640
  C           2.20020585811217      1.37470956256841      0.51758678895643
  H           1.43287402728554     -0.66110562661655      0.51191130837466
  C           0.95180125598136     -1.45720615311773     -1.91389014582527
  C           3.20659978095113      3.91982265523765     -2.03933592381981
  C           2.96182261521747      2.66395969309786     -2.38286406973671
  C           1.58244249867845      2.08002622748330     -2.48024135406074
  O           1.58736820795002      0.67432883549056     -2.57094860590201
  C           4.54975826670556      4.54393226255030     -1.94420329176652
  H           2.40320931534445      4.59536149986578     -1.77901644036817
  H           3.76150038154647      1.98602069047836     -2.64563316536734
  H           1.13418049825346      2.41769977525628     -3.42466693850875
  H           0.94489040837172      2.42239228075184     -1.65888499950765
  H           2.84228488812831      1.96548199066499     -0.12859120208888
  H           2.77919326584786      1.06956742885856      1.38675378030256
  H           1.38620415985118      2.00729624327001      0.87538784194516
  F           1.00176978625948     -2.40329331212415     -0.92920760141361
  H           1.57421593908131     -1.80968061797519     -2.74329478823508
  H          -0.09146468739132     -1.39175177052619     -2.24568163001490
  Cl          4.60854700196679      5.99649929276134     -2.98794120254244
  Cl          4.82908892392849      5.07113495509430     -0.25309069552261
  Cl          5.87428623928449      3.47216137571894     -2.41174143768848
