23
Coordinates from ORCA-job NEB_product E -44.634988930930
  C           2.69670593062561      1.11619047256874     -0.86438911951378
  C           1.56675608715361      0.27660331047891     -1.45827680013722
  C           2.38856844655226      1.40910006980936      0.60208526799598
  H           3.63551013060530      0.56241101770667     -0.94262905827881
  C           2.06923354290146     -0.81212898455153     -2.39486561967542
  C           2.79404644331837      2.38507115919332     -1.76293933687300
  C           1.96061315773702      3.52063157035862     -1.23639993564574
  C           0.79399451652703      3.85626619191565     -1.75144299125557
  O           0.40803214399165      0.46889259005091     -1.22821891109137
  C           4.24126607042284      2.83352401856662     -1.96297452357493
  H           2.42439538589094      2.12736411414581     -2.76298688172442
  H           2.37181705817842      4.05179828285923     -0.39109814117232
  H           0.36684489161793      3.33219485570560     -2.58996385055296
  H           0.20977335033272      4.66210002426581     -1.34330228742218
  H           1.40432751849290      1.86030516852306      0.69258831375780
  H           3.13141821297175      2.06989302580458      1.03604202696979
  H           2.39013033784590      0.47580920545862      1.16079226514911
  F           1.05144322406687     -1.38941850917589     -3.09663949842057
  H           2.55144883001649     -1.60200554186052     -1.80562252874725
  H           2.78477491203376     -0.40645054817110     -3.11892688441394
  Cl          4.27376424415062      4.29620725881839     -2.98331368872326
  Cl          5.06343345394874      3.20174767329954     -0.43964302515098
  Cl          5.17950211061780      1.56759357422961     -2.80327479149896
