27
Coordinates from ORCA-job NEB E -39.707507112440
  C           0.26064314592741      0.24871066631572      0.38783792359900
  C          -1.03522498211498     -0.07196285592054      0.80941213487865
  C           0.47628925605553      1.61052860956695     -0.22916581418544
  H           1.08533839908313     -0.06926336706396      1.01745355237857
  O          -1.30395707028683     -1.05085555317326      1.73617545925889
  C           0.29441934093416     -1.02382734373652     -1.13874940752134
  C          -0.81394465021666     -0.63974518700316     -1.89184091040549
  C          -2.09017499090113     -0.75027306675548     -1.28010127669594
  O          -2.03911254661786      0.21922822986129      0.06007919701672
  C           1.67812843827422     -0.95051947233816     -1.73427874276349
  H           0.19103507615081     -1.91820772513273     -0.52985173135119
  H          -0.67186341229418      0.09801399790738     -2.66687284197172
  H          -2.32099204405814     -1.69672656921533     -0.79872057622976
  H          -2.93163786002493     -0.33696097390935     -1.82059798995147
  C           0.61760920811694      2.66609083503109      0.86659856201505
  H          -0.37789533786655      1.85742780876994     -0.85915165357183
  H           1.37494962083455      1.61329009701299     -0.84420579581474
  H          -0.28620390794509      2.70632336924010      1.47050532960858
  H           0.78205942831969      3.64507918239736      0.42347183516433
  H           1.45996943813496      2.43925415315975      1.51807540717244
  C          -0.30867402462299     -1.41761776580196      2.65885306861291
  H          -0.81125224417560     -2.01986780808291      3.41448112310941
  H           0.13943368232726     -0.53977239558015      3.13377476958607
  H           0.47800940344807     -2.01747836093433      2.18946733713978
  F           1.81508249155582      0.08031653008732     -2.62801745859439
  H           1.88694480029196     -1.87145657613153     -2.29407024052018
  H           2.45102134167043     -0.80972845857051     -0.97056125996340
