27
Coordinates from ORCA-job NEB_product E -39.767749327100
  C           3.07627675537401     -1.65854774263020     -0.90698359138941
  C           2.22438332684045     -2.64783907241630     -0.12581935752985
  C           2.41625638870686     -0.26920083233972     -0.81533994869856
  H           4.03513035798843     -1.59532609466792     -0.38168634833786
  O           2.21209751249639     -2.34301053907350      1.17678771970240
  C           3.30496300238269     -2.20040748619943     -2.34167128751740
  C           2.56917697787634     -1.43696746928138     -3.40740185067241
  C           1.44892426968715     -1.86022459076079     -3.96060118362567
  O           1.63574406276878     -3.59078444909680     -0.58572705752143
  C           4.79253353456455     -2.28292305844500     -2.68528159560879
  H           2.92972514731741     -3.23057547071581     -2.35183119820957
  H           3.02445461089807     -0.50828402276262     -3.72225599398562
  H           0.98522185104044     -2.78394154792025     -3.65547966117746
  H           0.94412274492085     -1.29824919368825     -4.72812827016904
  C           3.40273376322037      0.86744444647899     -1.05247245072274
  H           1.99657204509189     -0.15727787835009      0.18645723330262
  H           1.59546911050602     -0.21363419517816     -1.53255944094527
  H           4.17878824499929      0.86015616556948     -0.29046654560046
  H           2.88501426555318      1.82276444522273     -1.00576620445404
  H           3.88341873278882      0.78396513841966     -2.02131822714320
  C           1.42739847869002     -3.18464055185382      2.01080214638139
  H           1.52819143643310     -2.79255356478351      3.01937618458302
  H           1.79072502150964     -4.21296974759845      1.95989392823919
  H           0.38311184209437     -3.16583916117879      1.69299614055845
  F           5.38795789335913     -1.04412747970839     -2.69119043403233
  H           4.93340041870146     -2.69920483219696     -3.68829769334014
  H           5.33830820419030     -2.88670121484472     -1.95253501208580
