22
Coordinates from ORCA-job NEB E -52.764060781550
  C           0.42821072914676     -0.10360540129031      1.10796715755577
  C          -0.91119535864227      0.39646651129457      1.08605433984506
  N           1.42395806769334      0.78649647898579      1.40137375343486
  H           0.59185759227228     -1.09885883584670      1.50234154801488
  C          -2.05513834369704     -0.54744960604224      1.43250361391955
  C           0.42335411633558     -0.46327203877158     -0.88314280707799
  C           0.22303241780241      0.82726933101097     -1.40525531817880
  C          -1.02203480899983      1.42091092319744     -1.29762933877752
  O          -1.16191345821144      1.51042265579758      0.56371536615633
  C           1.69900655013201     -1.18842848352575     -1.18590550368384
  H          -0.41798682930123     -1.14637404460762     -0.92244415189424
  H           1.08988768844091      1.44969558015539     -1.57704731069933
  H          -1.91389110771050      0.82177882425190     -1.39620041456541
  H          -1.13724214416843      2.45903663701574     -1.56263976661826
  H           1.24440190178060      1.73339876353619      1.09766396737329
  H           2.37314496417746      0.47651316018078      1.26391527465347
  Cl         -2.21422890934193     -0.54364629138190      3.21798933122558
  Cl         -3.57385460382859      0.01293581958740      0.72688034447479
  Cl         -1.78259378547855     -2.23594110871426      0.93328607547923
  Cl          1.62863155189337     -1.75357762219211     -2.89858043088692
  Cl          3.15092492329784     -0.17924648831461     -1.03435608623310
  Cl          1.91366884640726     -2.63452476432666     -0.17048964351740
