22
Coordinates from ORCA-job NEB_reactant E -52.794059657080
  C           1.67291721764153     -0.28939320319137      0.11091447172296
  C           1.43466001242794     -1.21047932034118     -0.84110078391459
  N           1.94439525601585      1.02086233037991     -0.15336328105010
  H           1.70896575208906     -0.58883937900321      1.14693494159529
  C           1.20095302557319     -2.64637628105745     -0.48489576073701
  C           3.08882194227845     -2.83736287427306     -4.24622918298159
  C           3.17409702459117     -2.17808517886753     -3.10139448978527
  C           2.58814490405964     -0.81464952736488     -2.89554201108982
  O           1.35357470368646     -0.85820789100800     -2.17386132363353
  C           3.58635054856982     -4.21619207972151     -4.48442664990638
  H           2.61311319822132     -2.39853864537154     -5.11262638290501
  H           3.63969445607074     -2.62789825868859     -2.23651299299416
  H           2.32339212832895     -0.35739421761387     -3.85114923408224
  H           3.30834915917845     -0.18097579837612     -2.36188509062757
  H           1.68559878966080      1.33717603040968     -1.07624983069131
  H           1.78691668974330      1.68170033207693      0.58840169795559
  Cl          2.70914903182310     -3.41982374210827      0.14076339748465
  Cl         -0.00676628398159     -2.78962034205203      0.82320743624904
  Cl          0.63371224393184     -3.58195572260887     -1.86907792474113
  Cl          2.20250662845324     -5.25760491277199     -4.93721839359666
  Cl          4.74002407512012     -4.20308242676974     -5.85177295978383
  Cl          4.39062949651663     -4.94135889167730     -3.08851565248731
