20
Coordinates from ORCA-job NEB_reactant E -37.794577515530
  C           1.82243572099905      0.00056569378999      0.02732706491417
  C           1.11833527882865     -0.96085342290960      0.60297312582280
  C           2.26506641083006     -0.03825020500965     -1.39744213009770
  H           2.09156903659465      0.85616790230053      0.62440488789525
  F           0.75059411693689     -0.85145144096682      1.90373397085287
  C          -0.54428206029897     -5.37522127902759      0.24511178665055
  C          -0.49806916061342     -4.11035587931829     -0.13576877217231
  C          -0.10564538569904     -2.98092639334990      0.75773154959195
  O           0.71333114547729     -2.09743538890634      0.00605643057727
  C          -0.97150824653840     -6.49729949877156     -0.65123908460781
  H          -0.30331443356624     -5.68997209987478      1.24995464276449
  H          -0.74704565761672     -3.82564497743679     -1.14823633619786
  H           0.42990397799411     -3.34329067851118      1.64405276861451
  H          -1.01182961178578     -2.45399571613297      1.09363919881346
  H           1.91777719011860     -0.94879958827772     -1.87555047261395
  H           3.35202139247292      0.00182944623861     -1.45530376222721
  H           1.87119824574669      0.82188436944104     -1.93724234360993
  F          -2.00349069365701     -7.18657614355105     -0.09376547017738
  F          -1.41359893645999     -6.06033927085971     -1.85229664048453
  H          -0.16194832976333     -7.22493542886621     -0.83714041430863
