16
Coordinates from ORCA-job NEB E -36.358101911680
  C           1.08630917747688      0.40492819729996     -0.34434856861008
  C           0.28215531655503      1.45971815507486      0.11640935102235
  N           0.83039584873522     -0.00194311368544     -1.73360898712309
  H           2.15563310153761      0.44938587884547     -0.15277888231692
  Br          1.05742231825287      2.57815572788674      1.50683759917149
  C           0.37187536272241     -1.06313823289147      0.62724455126867
  C          -0.99390463249214     -0.99337347932620      0.34194877802989
  C          -1.68944493134060      0.18732066218859      0.74464966885150
  O          -0.98162774361925      1.44883769450877      0.01583030650860
  Br          1.33853662848954     -2.62152492085470      0.04884019375023
  H           0.73306486280170     -0.74934163634506      1.60144862522676
  H          -1.40278647266046     -1.59219510907810     -0.45655433177109
  H          -1.56691384821964      0.49109198054652      1.78278633264198
  H          -2.71388598592740      0.26803866250792      0.40223643602105
  O           1.80651475970592     -0.08697376777221     -2.43444848404676
  O          -0.31334376201767     -0.17898669890566     -2.06649258862458
