16
Coordinates from ORCA-job NEB_reactant E -36.389335030770
  C           1.94227607504439     -0.07568150505802      0.07370072699639
  C           1.22251088144323     -0.46511556760999      1.14437847555401
  N           2.26313743831961     -0.93909707558825     -1.00553552335796
  H           2.31873431072406      0.92853571153055     -0.02476532801644
  Br          0.87992793677256      0.85538126755844      2.48629797090194
  C          -0.24485232314807     -4.36867778937041      3.25922524122854
  C          -0.37066318653777     -3.49063107729615      2.27960012178483
  C          -0.02942398589336     -2.04266035062001      2.43642621486285
  O           0.76028481077769     -1.67130252883633      1.31499642592279
  Br         -0.71556809827776     -6.17929381521513      3.06436753738882
  H           0.10901918892308     -4.12258531159992      4.24874531176295
  H          -0.71610318978450     -3.77953639599012      1.29824772051502
  H           0.52227263946547     -1.86379488769661      3.36771306798950
  H          -0.94982774606215     -1.44010254969361      2.44888985178659
  O           2.93073015643386     -0.45089743434275     -1.89453941176961
  O           1.86174509179965     -2.08344069017169     -0.98394840355020
