16
Coordinates from ORCA-job NEB_product E -36.395938149740
  C           1.76636669408166     -1.23924556611157      1.01802381217331
  C           0.94888477071284      0.02325849472118      1.11653044843507
  N           1.73695807193001     -1.72088671147954     -0.41053596956835
  H           2.81730349554809     -1.02869499623147      1.25487010044846
  Br          1.21374735960329      0.88651467128120      2.85423400036539
  C           1.20679523753259     -2.28642609244823      1.99796349103891
  C          -0.26413066348817     -2.50363208607255      1.88516174696576
  C          -1.08143382501078     -2.33059956178435      2.90837325638679
  O           0.22101989427952      0.50015527604389      0.32595797212532
  Br          2.18183795534610     -3.99911126891603      1.68651794592969
  H           1.47873292689213     -1.99381027798246      3.01583257608249
  H          -0.62551870403180     -2.82092385100908      0.91765671315894
  H          -0.72860038157366     -2.02076746550624      3.87926798991459
  H          -2.14030731557970     -2.48964195199108      2.80949609282355
  O           2.78386724710526     -1.65805103584882     -0.99311597848465
  O           0.68677723665263     -2.09923757666484     -0.84553419779527
