16
Coordinates from ORCA-job NEB E -36.086018374250
  C          -0.10727349965576      0.85496298378260     -0.83585162023293
  C           0.36891331646390      1.39095686852044      0.37099690391794
  N           0.92595589159326      0.20983202814417     -1.66116801089788
  H          -0.75167196695850      1.46975720124625     -1.45930893377296
  I          -0.69626244529232      3.08495073541519      1.15699870775625
  C          -1.09984881841003     -0.63161093430273     -0.23322426585071
  C          -0.18055475680622     -1.32693675764177      0.55808557464065
  C           0.35779474917636     -0.64252683540013      1.69319293998437
  O           1.06452134672556      0.70456014381392      1.18273663778173
  Br         -1.78633150278405     -1.51481161886392     -1.80037415765463
  H          -1.89682147910525     -0.06837053781598      0.24205472272670
  H           0.37455139375090     -2.14843833764380      0.13378690169347
  H           1.16597423743673     -1.15389836242149      2.20269159439222
  H          -0.36720287573579     -0.21701150417195      2.38597161185556
  O           0.96014226974598      0.56033025443162     -2.81356470127408
  O           1.66811413985520     -0.57174532709244     -1.12302390506571
