16
Coordinates from ORCA-job NEB_product E -36.123582087650
  C           0.76060716849778     -1.32866108328070      0.15086419171685
  C           1.60234246529519     -0.56054484590414      1.13749916985816
  N           1.67950486450328     -2.10434034522552     -0.75863163851262
  H           0.19803542177296     -0.64117388331478     -0.49294417202970
  I           0.43492007071657      0.93220195492031      2.18327628790729
  C          -0.20765479291780     -2.24918523308098      0.91359542768664
  C           0.44375639903274     -3.08890013651252      1.95923252837165
  C           0.07674129631909     -3.04536163163093      3.22743719201438
  O           2.74533456244301     -0.69938258326641      1.37753742379088
  Br         -1.13469039777863     -3.40737179595226     -0.42173856283495
  H          -1.00476727195836     -1.63948246523000      1.34810051762354
  H           1.23146592643213     -3.74552343458206      1.61902213950753
  H           0.55917409076346     -3.65667609642115      3.96892968338660
  H          -0.71387563865926     -2.39950785228852      3.57556599153876
  O           1.69830345059796     -1.73474072910849     -1.90030341448126
  O           2.32110238493989     -2.99244983912186     -0.27394276554376
