29
Coordinates from ORCA-job R E -34.202864982650
  C          -1.40625528986587     -0.59534596609341     -2.80238374472752
  C           0.04832899628874     -3.24206036757385     -2.64335830470500
  C          -1.26638513930357     -3.04882049534372     -2.54706711327353
  C          -1.98244239363397     -1.79939764503844     -2.64619231062960
  C          -0.52304983650678      2.57824070264101     -0.61492939921332
  C          -0.33222241929845      1.29352970415138     -0.31467196862516
  H          -1.89601911237998     -3.91282740973332     -2.36718078720131
  H          -3.05794807904781     -1.87424790996813     -2.57729977827767
  N          -2.04276892533962      0.60770007173506     -2.96530400313074
  H           0.47980999188188     -4.22314011842156     -2.54361452751169
  H          -0.33106608258371     -0.51327072560426     -2.85793402821600
  H           0.73951787348999     -2.43821144269114     -2.82888692663273
  H          -1.46754636824805      3.04629090644839     -0.40556030670837
  H          -1.13591240866857      0.72924313917032      0.14136075128860
  H           0.23217703342098      3.20390366461594     -1.05435487890451
  N           0.77075561966532      0.52619385991439     -0.59019228193373
  C          -3.46201974866021      0.73173635133196     -2.74225055615799
  H          -1.50376504003485      1.40432443670567     -2.65263993745458
  H          -3.75337986149411      0.48244253444299     -1.71395146086461
  H          -3.99378314340516      0.06619621252219     -3.42265293684793
  H          -3.76312180643308      1.75594075801142     -2.95321659334053
  C           0.95785668169538     -0.69341187536785      0.15463528595187
  C           1.97579454255795      1.16883035268707     -1.05004204107036
  H          -0.00489179872000     -1.17595409301254      0.31249849173885
  H           1.43294276935531     -0.52086430023746      1.13006002933220
  H           1.58675210097864     -1.37457195865649     -0.41952253184028
  H           2.44262056602990      1.79160554558528     -0.27585947079388
  H           1.74811692415187      1.79735681959694     -1.91070357933111
  H           2.68882435410781      0.40620924818217     -1.36049509091937
