18
Coordinates from ORCA-job NEB E -40.911619561950
  C           0.92333058755217     -0.13071447863886      0.78258838781816
  C          -0.43173049793653      0.18142772172736      1.09346392839505
  F           1.82940603408118      0.84213647443482      1.02776270435164
  H           1.32137987970462     -1.07993907594066      1.14913741916762
  C          -1.35476729666494     -0.91030680647758      1.52051861215386
  C           0.99136882486628     -0.20938001786554     -1.03817498296292
  C           0.43324445714123      1.04635561019212     -1.39315623878640
  C          -0.90124020843689      1.33654215599781     -1.02752998244505
  O          -0.94978151326793      1.26304273258038      0.62133385196939
  O           2.30476585676525     -0.37825006583784     -1.36840827832906
  H           0.36597233619904     -1.08811386381226     -1.21253121072988
  H           1.13374847160684      1.85050258321979     -1.55863792897347
  H          -1.65219922115608      0.58652774521926     -1.26295109270169
  H          -1.24495834816119      2.34545898435731     -1.21478731241888
  Br         -0.79971828357525     -1.66324357328670      3.23116751255252
  Br         -3.15406561025132     -0.23602238771650      1.65615341883088
  Br         -1.40500551465490     -2.46791569590040      0.22357520762986
  H           2.59025004618842     -1.28810804225250     -1.22952401552161
