18
Coordinates from ORCA-job NEB_product E -40.942205123410
  C           1.82961406928397     -0.89139036179990     -1.63674439049527
  C           0.76726880781287     -1.96309698432283     -1.46717345464579
  F           1.27340913440688      0.34103501959911     -1.44646390910694
  H           2.65238444835495     -0.98631241658018     -0.91948583934598
  C           1.20204792023773     -3.20380887834301     -0.71032753422608
  C           2.32086820527570     -1.01315913740283     -3.10228335294307
  C           3.70627276967967     -0.45792776285117     -3.24705840371299
  C           3.96851324546091      0.71152373390813     -3.79829152063288
  O          -0.35554945481044     -1.85961388931259     -1.85797078258418
  O           2.24889233460318     -2.39191805317237     -3.40932908609592
  H           1.60406694696465     -0.44576262562526     -3.71525481676716
  H           4.48605036258679     -1.09411323308979     -2.84986527502131
  H           3.18662391541602      1.34336639266366     -4.18595241138308
  H           4.97379475635011      1.08708261205457     -3.87271463993150
  Br          0.98431696460655     -2.64167048141852      1.16225124719400
  Br          0.01086215586149     -4.66042960622199     -1.09651296861007
  Br          3.01664193211687     -3.76071139794012     -0.96454687595693
  H           2.63532148579210     -2.54869293014491     -4.27897598573483
