20
Coordinates from ORCA-job NEB E -29.417336413440
  C           0.33654553522830      1.07448531322435     -0.22533113775342
  C          -0.96158184955106      0.69205366255595      0.16517059962800
  N           0.73304895877451      1.08760328153208     -1.58650450406067
  H           0.86124739892944      1.80848626901495      0.37625120882913
  C          -1.42155785198532      0.96595505712273      1.57588781655668
  C           1.23905587486411     -0.61616094066281      0.31951477222360
  C           0.55411197369811     -1.54380149538994     -0.48119150403354
  C          -0.79537088309311     -1.79428819594900     -0.25118036938180
  O          -1.56661806302764     -0.19139835579423     -0.53835879202456
  O           2.54589561061273     -0.31718038836691      0.09015642318216
  H           1.03515680876216     -0.58766648136166      1.38473502271478
  H           0.94955175491147     -1.71847814795520     -1.47361121281345
  H          -1.14293689369333     -1.88504529155746      0.76889964372227
  H          -1.33626641218595     -2.40262513228214     -0.95904013156807
  H           0.02784094523728      0.62004452283250     -2.14843834480818
  H           0.88872971362888      2.02611661860763     -1.93108649585631
  H          -1.21018559400609      0.10557216390216      2.21418659166874
  H          -2.49793516183545      1.12092881400658      1.57855078988374
  H          -0.92705400599569      1.84031832020874      1.98762030384924
  H           2.68832214072665     -0.28491959368832     -0.86623067995832
