20
Coordinates from ORCA-job NEB_product E -29.452017436040
  C           2.97944063852202     -0.82623279933227      0.76147127600127
  C           1.47685285194087     -0.79312757715852      1.01597992280212
  N           3.33273392085107     -0.51288253239816     -0.61525662903522
  H           3.49159566228361     -0.12707775537080      1.43057532766849
  C           1.05990125800688     -0.66734429065441      2.45530026797772
  C           3.54386472626014     -2.25393155960506      1.06152431402681
  C           2.81430460413945     -3.28037634295155      0.23717265226307
  C           1.82061911893588     -4.02174611012780      0.68716713531345
  O           0.69262451437892     -0.84725511013389      0.10078762007747
  O           4.92089709210444     -2.25271098479905      0.80831115365079
  H           3.42803536046922     -2.47794753947039      2.12676662953042
  H           3.16461749726415     -3.37853260431666     -0.78097319958100
  H           1.46520067926303     -3.94362768103620      1.70176235088060
  H           1.31520338747576     -4.73521561829358      0.05985973599224
  H           2.65824623208112     -0.96477484013168     -1.22912268553438
  H           3.25966861999680      0.48480712161859     -0.78213032461187
  H           1.68814915974869     -1.27681178062727      3.09803649462334
  H           0.01566166660684     -0.94651859613755      2.56795974662550
  H           1.17574176598535      0.37316162848590      2.75686391534240
  H           5.03894124368573     -1.83585502755967     -0.05855570401323
