22
Coordinates from ORCA-job P E -24.255399106590
  C          -1.40585019935810      0.53641070832562     -2.29876136567620
  C          -0.36068099196998     -1.73993307226037     -1.18013830093277
  C          -1.72275424635497     -1.80316658764842     -1.79530810209619
  C          -2.21479417768031     -0.71880636834439     -2.37228356519722
  C          -0.95059572420718      0.72584904066094     -0.84688810246488
  C          -0.15596124684154     -0.48045399963310     -0.31037295933755
  H          -2.25390193705573     -2.74272753551158     -1.77728240315871
  H          -3.18245949695998     -0.69847553117177     -2.84907733028328
  H          -1.98163180949607      1.40253125978865     -2.62637238444953
  H          -0.16746615278605     -2.63297546607359     -0.58616530369743
  H          -0.52528864132521      0.45105100376745     -2.94291115225136
  H           0.37471338908631     -1.71435805035946     -1.99202256209297
  H          -1.84389621757389      0.87223658569241     -0.23622725408500
  H          -0.52144749030569     -0.70768094585932      0.69676806812043
  H          -0.34701870112691      1.63169058344122     -0.76844314487532
  C           1.33531260786225     -0.13938575868177     -0.19843515532214
  C           2.16517274968960     -1.25032865836913      0.43526037131550
  H           1.44078679164568      0.76216505135737      0.41060601709866
  H           1.72793202443672      0.08604648135729     -1.19315869985537
  H           1.75842481435991     -1.51987723877377      1.40781626957197
  H           3.19204085260523     -0.91921345181638      0.57463138730052
  H           2.17871380335593     -2.13870804988789     -0.19044432763114
