22
Coordinates from ORCA-job TS E -24.142405832190
  C          -1.26001321835659      1.03500392956926     -1.66935736277441
  C          -0.21797310233602     -1.43714819190440     -0.66670209120073
  C          -1.52156084849050     -1.27677228586147     -0.98838093418304
  C          -2.03619258774100     -0.07247585223714     -1.51940267478370
  C          -0.74998719289588      1.39054039577772      0.43438321864274
  C           0.03474964918109      0.38878408818110      0.91064820892989
  H          -2.23890088249950     -2.02299745618688     -0.67188165442320
  H          -3.11195951461068      0.02494498742541     -1.58040787471129
  H          -1.71067246420993      1.96774791566156     -1.97062663996233
  H           0.10325673005505     -2.32831254001164     -0.15288591758748
  H          -0.20631602105854      0.95409456862188     -1.86802565937620
  H           0.55573123008478     -0.85944308766732     -1.13341048212100
  H          -1.78785477838878      1.44718362476234      0.71210726413068
  H          -0.38520400207977     -0.37223919091101      1.54831828119057
  H          -0.29887863847333      2.31096722055238      0.10270573767408
  C           1.53603168285099      0.51221271748698      0.90430050900893
  C           2.26133260127498     -0.71566998817718      1.44028810560092
  H           1.80155217746824      1.36888514000827      1.53523389620275
  H           1.89484790715156      0.74780257383703     -0.10182291996130
  H           1.90216270973341     -0.96103366304337      2.43742647918998
  H           3.33100842149751     -0.52518727489337      1.50005140369655
  H           2.10484014184289     -1.57688763099013      0.79744110681759
