17
Coordinates from ORCA-job NEB_reactant E -30.312013194370
  C           1.79772249992292      0.38724596372223      0.64917994658250
  C           1.09480547593235      1.14897034072926     -0.19080356144595
  N           3.15374176113701      0.16631597471562      0.53597427386806
  H           1.31300917807906     -0.05183587121262      1.50673066714119
  Br         -0.76068651676507      1.49972586321020      0.19734311178153
  C           1.82453327763640      4.58370216157455      0.55568756364123
  C           2.33813682216501      3.74964291729882     -0.34611893043208
  C           1.53021972225626      3.10536549289624     -1.42656795424841
  O           1.57636897564682      1.68236438583903     -1.34143026717472
  C           2.60364048024630      5.15379992285996      1.58195478969311
  H           0.78085816103450      4.87242308082207      0.54299938613561
  H           3.37934778205382      3.45878248518519     -0.29711722230777
  H           1.94631016596897      3.33505094751846     -2.41188174153119
  H           0.48591884347406      3.44317950844820     -1.38698231274855
  H           3.48623523681748     -0.71015141793450      0.90457436694775
  H           3.54396873972680      0.40395755770017     -0.36426251471808
  N           3.23076939466728      5.61366068662711      2.42412039881576
