21
Coordinates from ORCA-job NEB E -33.378028143240
  C          -0.85548422445444      0.90848954443790     -0.84344679269476
  C          -1.74561620228047      1.02854914031882      0.21212414125612
  F          -1.27470106378570      0.25983417150465     -1.95844484898635
  H          -0.19871730320760      1.73231709806122     -1.08626463447075
  O          -1.44355414314822      2.00094017550398      1.12031384985267
  C           0.33582174037011     -0.63542030321481     -0.08487643325136
  C          -0.39103189290125     -1.14535724848395      0.97753486662589
  C          -1.75727030952495     -1.43904621329961      0.76754080977683
  O          -2.51646427446205      0.07628401510412      0.58788441357886
  C           1.70577008426434     -0.05194062787436      0.14425801284233
  H           0.20255017576915     -1.11914535303670     -1.04531733732423
  H          -0.08531797654818     -0.87381354127085      1.98128660696521
  H          -2.33639761237878     -1.82694983773580      1.59444074276477
  H          -2.02115243293271     -1.87496844622985     -0.18948437892223
  H          -1.95973136877659      1.84184707235287      1.92336271655436
  C           2.46757891472980      0.20190762004123     -1.15072540896303
  H           2.27572067907238     -0.75163847810622      0.76254921315078
  H           1.61424375758472      0.87640724536614      0.71347165106088
  H           2.60954043411245     -0.72841146564076     -1.69623602435150
  H           3.44584668516289      0.62622856454881     -0.93751275341330
  H           1.92836633333509      0.89388686765319     -1.79245841205119
