21
Coordinates from ORCA-job NEB_product E -33.439882515570
  C           2.79933890567844     -0.58366384766655      0.57787835993379
  C           2.64630885318714      0.44410509197021      1.69185586239185
  F           1.55160245710457     -1.05272108319624      0.23136584970411
  H           3.20146451940461     -0.08775771833109     -0.31278318537734
  O           3.41932399352465      1.51159781255154      1.45776532857368
  C           3.68444657659670     -1.77442889042531      1.00104645446338
  C           2.99314328530165     -2.57148461238824      2.07102262283158
  C           2.73132112107736     -3.85996542282042      1.96806718325650
  O           1.95278806829616      0.34032381448450      2.66151448635259
  C           5.06644530709115     -1.31919019748893      1.49237928429743
  H           3.81104073281382     -2.40531386645737      0.11435358093032
  H           2.71147297949537     -2.01913106911742      2.95593709747814
  H           2.24157883920888     -4.40365589767245      2.75699209635326
  H           2.99275514461770     -4.42646482834665      1.08884257101233
  H           3.33137798211463      2.16115605125800      2.17461499741687
  C           5.87735375157637     -0.57851656540320      0.43483624379156
  H           5.61129815854042     -2.21449850660978      1.80015373592651
  H           4.95004814726809     -0.68839603462347      2.37638006872985
  H           5.93387113645625     -1.16220817338962     -0.48123192596229
  H           6.88957814780563     -0.41195790444213      0.79532934043979
  H           5.43714189284042      0.38857184811459      0.20807994745608
