17
Coordinates from ORCA-job NEB E -26.263242810610
  C           0.47089388084338      0.27954000616817     -1.21934861666780
  C          -0.88671878729021      0.33417690691473     -0.91360157012049
  H           0.84740073042549     -0.64851523377354     -1.61738579987543
  H           0.94227024902911      1.16345851082640     -1.62280916669788
  N          -1.51297900718135      1.55852540464008     -0.73905789657004
  C           1.20010904142025      0.06714931710351      0.61357243550871
  C           0.51344935600651     -1.06306319143527      1.06444765984317
  C          -0.90242342332746     -0.99394464949182      1.12794345239202
  O          -1.47527652039345     -0.70109973303040     -0.39475051850898
  O           2.55430196534914      0.05376357403628      0.44675090516600
  H           0.88984901011614      1.04303837114904      0.97274124779551
  H           0.96301599832084     -2.02882608506991      0.86701611828968
  H          -1.31338012789926     -0.12854877553001      1.64065218685337
  H          -1.42069765157423     -1.91131506650386      1.37472824321316
  H          -2.50567748370475      1.51090012446279     -0.57295188481796
  H          -1.21082753377491      2.31907751065077     -1.32369295073512
  H           2.84669030363476     -0.85431699111696      0.29574615493209
