17
Coordinates from ORCA-job NEB_product E -32.666178807910
  C           3.18384112022864      1.41068747094960      1.64069588146685
  C           1.75133259927523      1.25464097112677      1.20342761485855
  H           3.82113688211045      0.84909240413889      0.95180944550411
  H           3.43528245281789      2.47078968503029      1.52386282583935
  H           1.60520401301470      1.48323733347129      0.13077018565862
  C           3.38454194762524      0.94468232155890      3.08590974827264
  C           3.29836913429140     -0.55512558943912      3.16376332762657
  C           2.43400787284687     -1.19708290870196      3.92538340021371
  O           0.83948857159494      0.93717205417545      1.90850863417906
  C           4.71295805541476      1.41936580816242      3.65732654668311
  H           2.58735823314811      1.37792759254363      3.70408274826254
  H           4.00152709912756     -1.09340510688509      2.54108341124619
  H           1.72193794909464     -0.67661841423142      4.54347953893965
  H           2.39690307658111     -2.27187332330462      3.95020729868569
  Br          4.94457231299853      0.77013826987202      5.48808736327912
  Br          6.22972979439399      0.79002055735213      2.60259960882497
  Br          4.80440888543592      3.37905087418084      3.71820242045928
