23
Coordinates from ORCA-job NEB E -36.809050124860
  C          -0.10492163997828     -1.23282307960876     -0.19401874992034
  C          -1.37882044130425     -0.95308832110137     -0.70182977060825
  C          -0.00653360347367     -1.46820414079827      1.28911182026245
  H           0.55019319192227     -1.86853530100963     -0.77746061185524
  N          -1.62891906303153     -1.14079791098630     -2.05214706439110
  C           0.65833192816985      0.63550797849087     -0.55271085063972
  C          -0.20395915475337      1.41376120748056      0.22646509974213
  C          -1.55966551417969      1.45532493706331     -0.14320488401821
  O          -2.17089985398093     -0.17202392323507     -0.05597835441289
  O           2.00061321491008      0.54311863773210     -0.38446693693728
  H           0.44399334394706      0.56817471793221     -1.61685477786007
  H           0.05230149507023      1.61687709537314      1.25505788577001
  H          -1.78349172554245      1.60313725372703     -1.19305164386720
  H          -2.24590466428872      1.95859704324451      0.52250239389913
  F           1.29677728934075     -1.61148872285757      1.69862479429782
  H          -0.50631307304383     -2.40862234530009      1.55897964135172
  H          -0.44792954029115     -0.64853174040503      1.86306108437135
  H          -2.57907901309909     -0.96743100222814     -2.33923364229559
  H          -1.17679082282918     -1.91631920131490     -2.50560442786623
  C           2.56994672660329      1.05204920051918      0.80388085858158
  H           2.37501581137953      2.12508217270288      0.89811780404537
  H           3.64068889245622      0.88189531153795      0.70882722176663
  H           2.20536621599689      0.53434013304138      1.69193311058394
