22
Coordinates from ORCA-job NEB_reactant E -40.681227937510
  C           1.35289696112934     -0.52018349091449      0.14696514713535
  C           1.99030997082089     -1.42130777481761      0.91551317752012
  C           1.99224108870441      0.31221861633526     -0.88813000968588
  H           0.29743735988518     -0.34215615841210      0.26589464614596
  C           3.45124776761747     -1.73733502694568      0.82950977544649
  C          -0.79030752384463     -2.63330578462840      4.37332204085505
  C          -0.38383606842911     -3.01119468179147      3.16258116532882
  C          -0.00866218372105     -2.04714767257340      2.08696053283590
  O           1.39597552418439     -2.16605178532094      1.85659584204678
  N          -1.23025495428535     -3.48465465310800      5.36009832982447
  H          -0.88326009920235     -1.58369974754482      4.61920275102051
  H          -0.28418904773781     -4.05750933289194      2.91681700585977
  H          -0.24499805059757     -1.02025711385125      2.39114442439841
  H          -0.54148060570119     -2.27710911372650      1.15379163214160
  Cl          2.86791901221634     -0.64685665053387     -2.12020259762685
  Cl          0.77054927926995      1.27555339210251     -1.74453539580079
  Cl          3.18247954310307      1.47770955768718     -0.19352042408635
  H           3.74051764586238     -2.28991158053353      1.71915799677964
  H           4.04296622139540     -0.83071802485521      0.75044213509571
  H           3.64869743789173     -2.35427005234476     -0.04464193637993
  H          -0.98619991663178     -4.45518369920108      5.23542116471712
  H          -1.14644936192970     -3.15702922212990      6.30811259642808
