22
Coordinates from ORCA-job NEB_product E -33.254484608920
  C           2.13792680496764      1.64553647220842      0.03043447780969
  C           0.89668599902629      1.88590576450576     -0.82985662441861
  O           1.84602497191300      0.70211954556620      1.01898210503078
  H           2.97707921914417      1.28118596196989     -0.56981673112344
  C           1.12798202660711      2.40462212418106     -2.21559143553935
  C           2.55445036863289      2.99953267431801      0.68189390006405
  C           3.66757143540047      2.74236326138348      1.65392979579111
  C           3.53024639712236      2.79516788470133      2.96449503290885
  O          -0.18817746384540      1.65492586266631     -0.34915678389638
  O           2.95230368568603      3.88025223316126     -0.35140142673105
  H           1.67836932998605      3.40525430247743      1.21395677717244
  H           4.61373541009400      2.49280633945714      1.19370007235396
  H           2.58604559900010      3.03286507352763      3.42587693905170
  H           4.35042068058700      2.58777475469823      3.62952802954233
  H           0.88217746218169      0.73414363799079      1.15048860206688
  C          -0.16843046829801      2.75689794895573     -2.93219540843378
  H           1.67275385064795      1.63169413676201     -2.76481207123515
  H           1.79127062506222      3.26858750830187     -2.13782295734569
  H          -0.81942415881649      1.88762033681825     -2.98187027378462
  H           0.03767679936080      3.10135424214945     -3.94203004997138
  H          -0.69421195928680      3.54146321020117     -2.39426098838135
  H           3.37912338482692      4.64482672399859      0.05072901906901
