23
Coordinates from ORCA-job NEB E -39.628308076740
  C          -0.10337437350314      1.68791987330370     -0.22463102511301
  C          -0.36336176044936      0.78010920669542      0.70875936924454
  C          -0.70242535567356      1.69583866114878     -1.58885059656687
  H           0.60073691220063      2.46870809126451      0.01706790210454
  O           0.33264919163465      0.75428626310671      1.89348563605139
  C           1.25826440148522     -1.28727911797442     -0.93737668950420
  C           0.01113437762624     -1.70192775827764     -0.79703343536111
  C          -0.73491460647328     -1.53111520814957      0.49533583032348
  O          -1.29511723351212     -0.22016620348460      0.54078211395419
  N           1.93933325856068     -1.31734037643475     -2.21764533279561
  H           1.85524886139120     -0.89297464999056     -0.12724807922252
  H          -0.55048809950212     -2.06704178802025     -1.64493178258501
  H          -0.06367301184870     -1.68538006702255      1.34905068897588
  H          -1.58379297282554     -2.21283122787663      0.55996569084239
  H          -1.47153441621800      0.93358184668878     -1.67260696485422
  H           0.07016290034836      1.50891667368140     -2.33489590578590
  H          -1.14177442285509      2.66887132503933     -1.79959482905637
  C          -0.46917516874594      0.76384988491013      3.06454008374786
  H          -0.91069355473855      1.75340884001261      3.21592858680955
  H           0.19696850796616      0.52804792259919      3.89191587828722
  H          -1.26942429829683      0.02139057122826      3.00822334422473
  O           1.81101894347400     -0.34576933812447     -2.92312365883072
  O           2.58423191995507     -2.30310342432338     -2.47711682489021
