23
Coordinates from ORCA-job NEB_product E -39.673513576910
  C           3.07033705303427     -1.01118399488558     -0.50639933946771
  C           2.03270469088112     -1.42019680508179      0.53697184767644
  C           2.50325744601791      0.06207034611452     -1.42621807023204
  H           3.95217123906620     -0.64548767275663      0.03123415629822
  O           2.61161566374762     -2.09296365532388      1.53441992969540
  C           3.48196274283031     -2.30880544807612     -1.25337874106937
  C           2.37740384595322     -2.84701693549171     -2.10687239488612
  C           1.64648419761724     -3.89067296371455     -1.76626813637833
  O           0.85786285611605     -1.19170974635257      0.47237074148602
  N           4.67457479127027     -1.97276017825352     -2.07384550072936
  H           3.81587303921225     -3.04131480476979     -0.51094843800573
  H           2.21239307183439     -2.31828627265714     -3.03417653007347
  H           1.80890029649744     -4.42585076377154     -0.84451913871271
  H           0.84820918728822     -4.24868115758094     -2.39151957651364
  H           1.49829618463788     -0.21167768643355     -1.73728509306550
  H           3.12635218596049      0.19576116874482     -2.30698455539883
  H           2.44644269730380      1.00882223832375     -0.89557210104533
  C           1.74774780042681     -2.55406547026332      2.56704217661328
  H           2.37723304467582     -3.08961137537129      3.27244129776388
  H           0.98242849234529     -3.21311696483873      2.15288382344441
  H           1.25731920428161     -1.70930378929943      3.05356958567696
  O           5.74925697194986     -2.20185875996665     -1.57515349223324
  O           4.49807329705192     -1.46648930829435     -3.15369245084321
