67
Coordinates from ORCA-job A2R E -97.865450044370
  Ru         -0.46397825872845      2.09880084732044     -0.36410209406926
  H          -0.25764836153424      0.62078969701962     -0.78496180795881
  N           0.69357078231061      1.64426797164951      1.30255567498567
  C           2.01037792664565      1.39951138577803      1.17400909811458
  C           0.14539077465799      1.55098458625228      2.52873554701211
  C           2.80549197892734      1.06236687173346      2.26067556998427
  C           0.88576923609569      1.20019349959258      3.64675947358399
  C           2.24199369030323      0.95140756874250      3.51818907568413
  H           3.85382067729049      0.86490051338360      2.10574377234997
  H           0.39672347981667      1.12989498444990      4.60603387595970
  H           2.83879171307976      0.67664757339821      4.37345743459939
  P           1.59310131742058      2.54909510025693     -1.27843357035777
  C           2.06989722411659      1.95330769504979     -3.01478330612070
  C           2.38043842832987      4.25693256423589     -0.95829321187893
  P          -2.11047184269847      1.60024264424092      1.02029642755488
  Cl         -3.77700110618344      2.66301599585665      1.21548666983184
  Cl         -2.87394638385952     -0.24303211127181      1.30064424358897
  C           2.60601978866857      1.44784311742757     -0.19631428257794
  H           2.51009647584237      0.44127857133285     -0.62244880762215
  H           3.66677384655228      1.70892158722842     -0.16210191727578
  C          -1.31004198849732      1.87591494305936      2.67224426164810
  H          -1.78321802251649      1.31213276664032      3.48130822183051
  H          -1.42384173325413      2.94909350191353      2.87171773648965
  C          -1.49690533621811      2.46436923896594     -1.84956449514985
  O          -2.15795490700839      2.68194325043014     -2.77050934867202
  H          -0.63003635590736      3.55578321949002      0.15076473055503
  C           3.54042716129665      1.56612749264083     -3.17740375450276
  C           1.22231254382199      0.71305949195840     -3.30328392133826
  C           1.67027345836104      3.03184698935441     -4.02279713386167
  H           3.79470848493191      0.71789032635322     -2.54663061710167
  H           3.70847604610245      1.27024685209050     -4.21284158255249
  H           4.21730887573565      2.38248331819739     -2.95383362936417
  H           0.16209807775437      0.95908036979845     -3.28848446172727
  H           1.47240143090210      0.31714088826882     -4.28716148739276
  H           1.39479146267307     -0.07159015667377     -2.57023590449394
  H           0.67069316059155      3.40223387128390     -3.78988929873410
  H           2.36905517921907      3.86429873916132     -4.02620155391335
  H           1.65027143235105      2.61052515355055     -5.02738135643793
  C           2.38443135145651      4.44305435573866      0.56294562696888
  C           3.80986167507575      4.44499451271619     -1.46164866557609
  C           1.46447677920863      5.31981435474640     -1.56789228282698
  H           3.10966063677931      3.79318464855876      1.05031972969334
  H           2.64297659841406      5.47326120772204      0.80584069130305
  H           1.39506132603608      4.24377095844796      0.97334748756372
  H           3.85920577521234      4.46436367112147     -2.54642818784120
  H           4.18268785179246      5.40388205100737     -1.10092445805237
  H           4.47530833638191      3.67059484994743     -1.08497086225104
  H           1.56523028820710      5.37176110317904     -2.64751893552651
  H           0.42538580149632      5.09471502669653     -1.32798087996817
  H           1.70674115833387      6.30052371184375     -1.16030801045876
  C           1.28111070518819     -1.93425415299195      0.67372343499076
  O           2.42263223487981     -1.52450775070288      0.75842289153785
  C           0.70308402910431     -2.33504275129962     -0.62856296642733
  C          -0.66751420499986     -2.47220760940958     -0.84124729064362
  C          -1.14249426141014     -2.80656084705802     -2.09528270949183
  C          -0.26378582095588     -3.02649283824241     -3.14388834514706
  C           1.10118027638907     -2.90522289967171     -2.93987861766302
  C           1.57933274370758     -2.55234063112414     -1.69351057105812
  C           0.39700885289197     -2.05458657631222      1.88674719959520
  H          -1.36797715838991     -2.29385701303900     -0.04157645241032
  H          -2.20659064068205     -2.89305642202882     -2.25711597355969
  H          -0.64303165211063     -3.28961319449252     -4.12028807624124
  H           1.78979112575893     -3.07626455377550     -3.75431573059372
  H           2.64064578286461     -2.44635055898455     -1.51660173917526
  H          -0.06192314207840     -3.03900494472432      1.93216523563244
  H          -0.39555736823657     -1.31029962552086      1.82693011498685
  H           0.98383056229196     -1.87490900250819      2.78493407197098
