67
Coordinates from ORCA-job A2S E -97.868377524160
  Ru         -0.51845051097857      1.92834678151591     -0.40977438718855
  H          -0.28767923356279      0.40977358237980     -0.61732299471177
  N           0.48391752964674      1.70478085809675      1.39132654828990
  C           1.81819725600634      1.51634143639424      1.41406242429241
  C          -0.16859487268481      1.76361538760187      2.56619578620694
  C           2.52477314155111      1.41567072162925      2.60456127431666
  C           0.48402929409542      1.65291682546538      3.78432682269130
  C           1.85722111599754      1.48625438263539      3.81340997106102
  H           3.59429243012809      1.27663792353447      2.57301964806437
  H          -0.08708767971492      1.71171092570419      4.69755240700490
  H           2.38839181564799      1.41590767028402      4.74920008297772
  P           1.61088108002593      2.30452913605483     -1.19931400957379
  C           2.25677944601859      1.50183962229111     -2.79103687174050
  C           2.32889677817525      4.06600946976615     -1.04285796903855
  P          -2.30065683149903      1.62949289917401      0.86108444490492
  Cl         -3.88755602160683      2.82614568755274      0.78118617119570
  Cl         -3.24632965218160     -0.10572843076108      1.21383676902257
  C           2.53774157291323      1.39087736465025      0.11100853300407
  H           2.50517065407803      0.33442341803531     -0.18784564454654
  H           3.58511299328448      1.69034589192891      0.20036334428578
  C          -1.64524361065976      2.02023995128164      2.55352720688285
  H          -2.15943763376370      1.46717859567954      3.34484766253308
  H          -1.82422442642978      3.09289620069467      2.70085226264622
  C          -1.40969669369318      2.11184935302045     -2.01643386291282
  O          -1.97932404349417      2.22501993446308     -3.01400358791516
  H          -0.71656162593102      3.43552879968533     -0.09358770311851
  C           3.74318930211608      1.14376939042329     -2.76719344740514
  C           1.47161976187361      0.20393865946684     -2.98589703897268
  C           1.92503119252363      2.42687512282769     -3.96319975244710
  H           3.94364595856679      0.37412943731696     -2.02599326924399
  H           4.01729742400299      0.74151063593940     -3.74226162649456
  H           4.38195609868071      1.99692663077120     -2.57095806035243
  H           0.40299350509107      0.40455028875569     -3.04231938904169
  H           1.78534822538170     -0.27474556043963     -3.91306242075444
  H           1.65468766994026     -0.49023942631351     -2.17041421513262
  H           0.89829938007503      2.78527617198541     -3.87179348535548
  H           2.59835852037362      3.27855493383874     -4.01387656409388
  H           2.01096088764034      1.88046379354852     -4.90194207057891
  C           2.20241437633331      4.45387518456029      0.43438955938292
  C           3.79165371684959      4.23383364195080     -1.44868070482694
  C           1.44681097502013      5.00918960929394     -1.86312282695571
  H           2.90405990864990      3.90492969143187      1.06046103825549
  H           2.41078476039003      5.51673229140134      0.55312530171586
  H           1.18956376629123      4.27311810059864      0.79214536759424
  H           3.93504131042681      4.10390267184602     -2.51721248308972
  H           4.10825694193717      5.24645085449826     -1.19740175403340
  H           4.44044001734742      3.54384327640708     -0.91249739917411
  H           1.63469882479470      4.91687172118048     -2.92823100804758
  H           0.39568899739253      4.78965484928581     -1.67742795189358
  H           1.63753517478114      6.04283156209586     -1.57691417409602
  C           1.24346642964744     -2.15550713620251      0.10739996291836
  O           2.33348494587537     -1.75665497496836     -0.25550166858571
  C           0.80375234918130     -1.99448821215175      1.51420701177268
  C          -0.53814507426683     -2.00943392208775      1.88529086946664
  C          -0.89312143819504     -1.83267167164300      3.20995899820643
  C           0.08276832171901     -1.66836422173481      4.17936358975320
  C           1.42111164368447     -1.66236338191914      3.82027218657241
  C           1.77813998499789     -1.80924432518290      2.49472521287397
  C           0.28594513269941     -2.81828201457671     -0.84058803033981
  H          -1.30811930182592     -2.13845333454610      1.14258076384999
  H          -1.93751469767696     -1.83179517706243      3.48515907559623
  H          -0.19890215070485     -1.54706415935035      5.21539838145497
  H           2.18435670623336     -1.54150696011659      4.57492858986507
  H           2.81637548720533     -1.79925590079085      2.19583327273190
  H           0.81159828449558     -3.12025732781939     -1.74328975381809
  H          -0.47531025875931     -2.08776985479305     -1.11560231101378
  H          -0.19878533215866     -3.67523534648352     -0.38104210489719
