67
Coordinates from ORCA-job A3R E -97.833228909320
  Ru          2.25655217536312      3.29668206518807     -0.29978670997331
  H           0.85862114902091      2.10090914468994     -0.34520659212609
  N           2.58199185259553      2.24965665378492      1.48618018093907
  C           2.91333104651596      0.91808362990813      1.37345515649571
  C           2.29680802971010      2.76733716001205      2.68777706691272
  C           2.84311950220396      0.09630712450872      2.53804013174262
  C           2.24543018952016      2.00927013090145      3.83717988136490
  C           2.51125522391667      0.63358406573181      3.74384379690174
  H           3.06841080642151     -0.95388447116913      2.43231130375950
  H           2.01117689164461      2.46638813126179      4.78394603632849
  H           2.46016895836871      0.01725650067210      4.62896609884950
  P           3.65066627073409      1.61719450481537     -1.10888541911333
  C           3.32266119673233      0.83728958186761     -2.80676344255974
  C           5.52459965336798      1.96685593143439     -0.91928471869326
  P           1.28732277724090      4.75748124829884      1.13462811120872
  Cl          1.83287409460720      6.65964900951400      1.00449689229034
  Cl         -0.63525100112967      5.00522069076189      1.69608078062079
  C           3.25611021753630      0.40426328927001      0.12289688371087
  H           1.29263007024026     -0.07361937213465     -0.10744162982100
  H           3.62895601584160     -0.60885760188156      0.05460806296079
  C           2.06466937512422      4.25210659771460      2.73861638457310
  H           1.46760650097073      4.54881960134657      3.60381802024849
  H           3.03394896986105      4.76423888122724      2.77992536000940
  C           1.95190081526967      4.20515072427144     -1.87881092734717
  O           1.79201010354288      4.82401509532969     -2.83682216273266
  H           3.47098437089596      4.18465855863562     -0.08711353186090
  C           3.65370453542297     -0.65339401976716     -2.83616259686881
  C           1.82838793292893      1.00513171688605     -3.09833478579019
  C           4.08557265219729      1.59486725510180     -3.89195672190483
  H           3.01000276132648     -1.20027871984179     -2.15112493010465
  H           3.47770220284926     -1.03918448093880     -3.83989915539565
  H           4.68909847039898     -0.84941816449102     -2.57622722374787
  H           1.53456894132663      2.05573586444085     -3.04624066123074
  H           1.60936949338229      0.64851720880718     -4.10422213783413
  H           1.21922009167105      0.42835669700751     -2.40843995469767
  H           3.93435086988094      2.66751531812322     -3.77464431657511
  H           5.14918432797915      1.37695734620070     -3.87122979147378
  H           3.70914644833413      1.30463719782266     -4.87268712320004
  C           5.73216267666020      2.25947402160397      0.56967354667607
  C           6.39531695053695      0.76743518922248     -1.28710974259569
  C           5.92942997623925      3.21178761854327     -1.70854003063658
  H           5.50645389301937      1.38657420052241      1.17963219647235
  H           6.76876411141416      2.54018389840494      0.75042373610273
  H           5.09465146945561      3.08472017199036      0.88805097775038
  H           6.39458848282720      0.57146765197016     -2.35565438979144
  H           7.42477394001956      0.96451497471657     -0.98828921017753
  H           6.05904019510855     -0.12438381555327     -0.76048743504009
  H           6.06297195426409      3.00414741743349     -2.76462343041701
  H           5.16862516516565      3.98590987945961     -1.59594165646555
  H           6.87192136517340      3.59959724865879     -1.32407409839055
  C          -0.02405422111156      1.36388078336623     -0.23471327677565
  O           0.40248168201664      0.05912384859694     -0.50251700084377
  C          -1.07406259220753      1.78002128062722     -1.23724975172472
  C          -1.23000914577286      3.11271968990203     -1.59019657649736
  C          -2.21947341948930      3.49146501649263     -2.47787435005489
  C          -3.06139866075789      2.53704450869201     -3.02425582212160
  C          -2.90849673821793      1.20583094676162     -2.67801383989205
  C          -1.92153984268784      0.82736354414161     -1.78571125569920
  C          -0.60619118924110      1.44972470478142      1.18121404722238
  H          -0.56591916437449      3.86485891947373     -1.17273443433028
  H          -2.32788813805149      4.53128454225006     -2.74778727800205
  H          -3.83163116158264      2.83169016831037     -3.72144815754429
  H          -3.56002240745535      0.45732066457750     -3.10426782667983
  H          -1.78999602514883     -0.20830421025022     -1.51378512133966
  H          -1.42258095822305      0.73269012098640      1.25212887173133
  H          -0.99609587808242      2.44235102497305      1.38489708538644
  H           0.14025369668880      1.18944589403254      1.93016860781224
