67
Coordinates from ORCA-job A3S E -97.829507480970
  Ru          2.06247598749694      3.38512261451398     -0.40896513488330
  H           0.55191206773769      2.31509936276275     -0.30982567294221
  N           2.46741614022034      2.47741300206892      1.43493265558766
  C           2.78481568626348      1.13826006597705      1.41115341007698
  C           2.26105865141079      3.08619111033401      2.60895369617320
  C           2.84645128340802      0.42130491585091      2.63978068122493
  C           2.33318992399468      2.42678806213475      3.81767514089869
  C           2.62756754215878      1.05750699995158      3.82292281658365
  H           3.08360166700718     -0.63092021958025      2.60145714103199
  H           2.16544087479900      2.96175175007562      4.73750932704122
  H           2.68452254034057      0.52359296995726      4.75952982006847
  P           3.33512901931463      1.58633047320415     -1.17377742437946
  C           2.88909288672155      0.68152731417490     -2.78255130355540
  C           5.23197385553849      1.87895863799275     -1.12467681741747
  P           1.43997003147940      5.11540124942775      0.92501779694050
  Cl          2.60784269710872      6.70536726837979      0.63551789267629
  Cl         -0.25420588215200      6.13177121124024      1.33120818019842
  C           2.99135801971793      0.49906618442823      0.18326395574072
  H           1.10981789654924      0.13727041009262     -0.03112829392863
  H           3.36668170285363     -0.51642570708145      0.18721218399042
  C           1.98421898720054      4.56697957409739      2.61122236395102
  H           1.22790675483595      4.81383858457450      3.36023047782173
  H           2.90525277741427      5.10859617882602      2.85677388872780
  C           1.62374089056812      4.17438876746320     -2.02029982078836
  O           1.36072168388170      4.72452355677429     -2.99816301634288
  H           3.36275584307661      4.15219666200875     -0.42199199347283
  C           3.13747008122406     -0.82205207025300     -2.68375672292757
  C           1.39626805582921      0.91147236358475     -3.03481688582544
  C           3.64029081688020      1.29116884365670     -3.96493203696240
  H           2.49744995883776     -1.26523603640186     -1.92427226521853
  H           2.89716874862466     -1.28868300082814     -3.63860765331170
  H           4.17173609788393     -1.05146785922813     -2.44716849985041
  H           1.17163499850579      1.97957194143260     -3.06414982234277
  H           1.11885945163039      0.48402497532375     -3.99802586543261
  H           0.78694664734889      0.43167964481546     -2.27448953961105
  H           3.54617429236694      2.37630188495401     -3.94641506909858
  H           4.69159197327026      1.02070626364558     -3.96747618631475
  H           3.20642210853991      0.92903581517007     -4.89687570060389
  C           5.54866692898235      2.29300631903669      0.31600863824720
  C           6.02923434522259      0.61118260614673     -1.42642260186613
  C           5.64221287131140      3.02578016571033     -2.04867548716868
  H           5.33281882008881      1.48859471870289      1.01672951272417
  H           6.60524573004597      2.54233079445697      0.40321016793044
  H           4.96774625882759      3.17124076460914      0.60118454253576
  H           5.95273363762566      0.31307907471583     -2.46801644571594
  H           7.08262673535457      0.78971860401025     -1.21114724870332
  H           5.69404571739901     -0.21047235864954     -0.79555426150415
  H           5.71381490341101      2.71467186165005     -3.08498249861518
  H           4.91949883477611      3.83964241953984     -1.97518626112872
  H           6.61728864840882      3.40717912865657     -1.74832328877871
  C          -0.25455235064972      1.53715720454044      0.01721979456555
  O           0.16188964465719      0.24936418784166     -0.30551529324279
  C          -0.51698676935796      1.69656888172203      1.50259837892112
  C          -0.95260443931302      2.91368449776992      2.00846450816900
  C          -1.21536880878402      3.06399136000231      3.35685165973804
  C          -1.04960676300515      1.99251895654659      4.21851554025642
  C          -0.63726638851636      0.77090028209528      3.71827258990784
  C          -0.37518213082813      0.62055942922228      2.36791920255157
  C          -1.51889392935088      1.83691345482362     -0.79021749678937
  H          -1.10757774111319      3.74327234460822      1.33540759792187
  H          -1.55561716736128      4.01855222626123      3.73191665997903
  H          -1.25035896643779      2.10822795524714      5.27330159678535
  H          -0.51801262735819     -0.07374355858645      4.38047019423863
  H          -0.06963748606358     -0.33992907816973      1.98079806421301
  H          -1.31870066285859      1.70356608655627     -1.85035417169780
  H          -1.86606962964427      2.85111880756108     -0.61738320354167
  H          -2.29534997535728      1.13555909785086     -0.49208609345600
