67
Coordinates from ORCA-job TSA2S_3S E -97.823312079040
  Ru         -1.50448876491733      0.33334931775722     -0.50372779684977
  H          -1.00340245512554     -1.37334408898507     -0.44386333010341
  N          -0.51339639594506      0.41605467525850      1.33721122466884
  C           0.83778853852756      0.26745070464039      1.32490979820131
  C          -1.16301291488355      0.48267396324524      2.50208933668622
  C           1.54667384097824      0.19596535085842      2.53836702252616
  C          -0.50716199119909      0.41232689950920      3.71997219396545
  C           0.87623133323531      0.26814344433716      3.73277182125589
  H           2.61855452712344      0.07820109294948      2.50670946444168
  H          -1.06889564778403      0.47075364210539      4.63766733403293
  H           1.40825034839647      0.21478177402181      4.67014232615777
  P           0.60777014618698      0.93957776773301     -1.27969521920156
  C           1.31125498286521      0.25075289568429     -2.90001825081739
  C           1.07405515166736      2.78837281094075     -1.11978497051640
  P          -3.34219940054904      0.25481933866705      0.81361361665666
  Cl         -4.56577485606996      1.79702610640569      0.49536713480188
  Cl         -4.77647656056377     -1.08473575145523      1.27738595848902
  C           1.50343002163712      0.10793382267902      0.05424280108007
  H           1.29460950436909     -1.21862728283881     -0.24177512086173
  H           2.58314650824059      0.23874692368112      0.08543693207205
  C          -2.65352069446536      0.68054482264614      2.48788237452146
  H          -3.12753084379901      0.08054273122026      3.26866901116526
  H          -2.88178922400222      1.73645755770143      2.67550117774563
  C          -2.41041957339031      0.23290286977053     -2.11102138765345
  O          -3.02814048229785      0.22591317713168     -3.08305318847460
  H          -1.80759961054908      1.82821242812972     -0.44147045051383
  C           2.79608747511676     -0.09043531117233     -2.78850389464772
  C           0.54399413697955     -1.03825695876890     -3.20208583043634
  C           1.04371727300639      1.21683240431571     -4.05400083626360
  H           2.94411775650230     -0.89992020996800     -2.07819957172923
  H           3.15605904103127     -0.42745884265677     -3.75998120454820
  H           3.39667794366389      0.76165953901657     -2.48597762739694
  H          -0.52604277745254     -0.84212016673473     -3.28561934737859
  H           0.88638874728989     -1.45416964512379     -4.14887624278897
  H           0.72202983105286     -1.78151535172219     -2.42823108563034
  H           0.00238227389759      1.53727479865240     -4.03863523355329
  H           1.69021146993023      2.08889432124531     -4.02329766555437
  H           1.22582478406925      0.70739515311880     -4.99995144883495
  C           0.80802206549437      3.18708804493979      0.33511132740572
  C           2.54651921370864      3.06732642639945     -1.41577927626980
  C           0.16302093698832      3.63216010675995     -2.01283957142211
  H           1.47980627736210      2.67497532935931      1.02165276051768
  H           0.96314973230197      4.25884112039677      0.45343471357420
  H          -0.22220728885458      2.96396690116432      0.61374780918577
  H           2.79284943158287      2.91221545037682     -2.46171829430181
  H           2.76678989199521      4.10757792632810     -1.17646981196561
  H           3.19197747597139      2.44123617416764     -0.80212645241481
  H           0.47317460634483      3.61189516887578     -3.05165207593527
  H          -0.86275387919186      3.26746710123856     -1.94576117226556
  H           0.17874085031187      4.66947136908211     -1.68128076345836
  C          -0.41903881723322     -2.44025573100703     -0.14728001820975
  O           0.86223590260096     -2.37967211942894     -0.51979225084977
  C          -0.60982865740788     -2.62148243383043      1.34971734582807
  C          -1.87422884428551     -2.66887015017010      1.91967839797030
  C          -2.02809224571640     -2.85781889858713      3.28018709863169
  C          -0.91475591933107     -3.00896203160207      4.09025391502353
  C           0.34834874903389     -2.98761788031915      3.52643976136524
  C           0.50036002491659     -2.79818231791171      2.16476670669192
  C          -1.18221153023738     -3.52084301876957     -0.92375928934033
  H          -2.74511697520458     -2.57976625617329      1.28894413617912
  H          -3.02076601508652     -2.89319252116181      3.70653581863709
  H          -1.03331898917108     -3.15379628362635      5.15420565300682
  H           1.22171945896165     -3.12098553883111      4.14823837555433
  H           1.48225593549314     -2.79576019892145      1.71470245085093
  H          -1.03894139101246     -3.37514284711337     -1.99165140117029
  H          -2.24500199436503     -3.50393502093173     -0.69975541682452
  H          -0.77211144874382     -4.49091459469983     -0.64792030070803
