17
Coordinates from ORCA-job NEB E -42.158075153320
  C          -0.82856980715592      0.14038914328355      3.39338492350479
  C          -0.51418009186095      0.36221716486291      2.12020654924777
  Br          0.47153985726953     -0.48987316901934      4.59390727509969
  H          -1.80666892463352      0.29869229667637      3.80570681570135
  Cl         -1.73459820478610      0.95309284590444      1.03177970182506
  C          -0.10561502589785      0.35615247167098     -1.94261895129121
  C           0.21011762428414     -0.20534688748440     -0.71524228585578
  C           1.01737842810290      0.50776188400959      0.30635898619707
  O           0.71344772039316      0.13596558184667      1.63316247639559
  C          -0.40168645867384     -0.55571574313047     -2.93439260265670
  H           0.26489997075895      1.32313156614076     -2.23990006078680
  H          -0.21209139832493     -1.15689891907551     -0.42453688183617
  H           0.94190414560426      1.59585051777671      0.17734380521298
  H           2.06794021324836      0.21731681832406      0.18068813977813
  F          -1.05952693187971     -1.66663976530601     -2.76308215354539
  F          -0.33707159204550     -0.25936561677576     -4.20538275370360
  F           1.31278047559701     -1.55673018970455     -2.01738298328673
