21
Coordinates from ORCA-job NEB E -45.506868749570
  C          -0.62433144992424      0.21673610428576     -1.03398883821500
  C           0.43678629989068      0.64739324377128     -0.21400496660594
  C          -0.32125781517101     -0.56110273574128     -2.27495050431705
  H          -1.44736227042984      0.90981962108910     -1.14916924073090
  O           1.64792755971229      0.09934029022878     -0.42546839149686
  C          -1.61031848832635     -0.93411502303596      0.32946205022682
  C          -1.78392966882077     -0.05086193516500      1.38372754521020
  C          -0.63321464189548      0.44442076602487      2.02734297205137
  O           0.20914094008003      1.33974243029781      0.83543921299299
  F          -2.70119839099342     -1.31483036309679     -0.34957611777445
  H          -0.88029115296441     -1.73672409006869      0.36041341433718
  H          -2.68502242423262      0.54388034112827      1.38921524435354
  H           0.14272411376646     -0.27023201899461      2.27484749636856
  H          -0.77050076685269      1.21071866452226      2.77659359574654
  Cl          0.46713318532437     -2.11244275752745     -1.92898456634781
  Cl         -1.79810429397436     -0.87807372178673     -3.20682893151882
  Cl          0.79065521667281      0.37701562136421     -3.33286900368677
  C           2.68656662067497      0.45543192855927      0.47192976923098
  H           3.61288958231949      0.16121436343947     -0.01551513871981
  H           2.58184147557912     -0.07764397327501      1.41966161266966
  H           2.67986636956499      1.53031324398043      0.66272278622556
