21
Coordinates from ORCA-job NEB_product E -45.557093824200
  C           1.31531799829819     -0.39908520296967      1.40856298864374
  C           2.61245554709938     -0.01520896289471      2.14381451359411
  C           1.55512617915760     -0.95037978837179      0.00923843238211
  H           0.72297974368610      0.51680081614391      1.30999469834007
  O           3.63102807738355     -0.78517040623692      1.81514918149598
  C           0.54252341082320     -1.33252932173247      2.37913080087344
  C          -0.70719516611962     -1.92577572976709      1.80362460053046
  C          -1.90285861262654     -1.39284199240341      1.96606362065141
  O           2.64068998286051      0.86674082357074      2.95684663322436
  F           1.37793690753594     -2.34579268734682      2.79678796155531
  H           0.31920480558380     -0.73998897987913      3.27726494289626
  H          -0.56200092834646     -2.84847713306857      1.26187495885561
  H          -2.04906921886009     -0.47845694353085      2.51718660722654
  H          -2.78120800477920     -1.84490546024527      1.54140679532592
  Cl          2.20760117217747     -2.58861381547277     -0.00932166721272
  Cl          0.03158290836521     -0.93756375058991     -0.92170890129119
  Cl          2.68768759760702      0.13108542471300     -0.85028225350786
  C           4.85616299775765     -0.54074807968382      2.49736632503328
  H           5.57450809869882     -1.24340746033448      2.08434831126762
  H           4.72746140317567     -0.70554146146111      3.56829839655335
  H           5.18016510052182      0.48816011156114      2.33115305356218
