22
Coordinates from ORCA-job P E -28.482538239230
  C          -1.39233701651987      0.52440311067670     -2.30542689967651
  C          -0.36101504269764     -1.75274186865192     -1.17715702485663
  C          -1.71264264937950     -1.81210361019198     -1.81513538922202
  C          -2.20159470973230     -0.72797728813283     -2.39444218254925
  C          -0.94818985368286      0.72165636476914     -0.85380981656861
  C          -0.15597671645286     -0.48520153003874     -0.31700090885519
  H          -2.24415803861348     -2.75070567769294     -1.81559001681814
  H          -3.15947291584353     -0.67767167591790     -2.88445729926512
  F          -2.13200042003348      1.61865878133140     -2.71182273228453
  H          -0.18964120319327     -2.63998977577409     -0.56863230497966
  H          -0.52223565371941      0.48769606430545     -2.97786802314428
  H           0.38801710688204     -1.74837697841401     -1.97643769389763
  H          -1.85473849993724      0.87037504498118     -0.26399629069674
  H          -0.52246302750886     -0.70462469584455      0.69072182999663
  H          -0.35343349320133      1.63329723171773     -0.78181108502959
  C           1.33564078522482     -0.14388704433417     -0.20744416073977
  C           2.16116574945179     -1.25088194972966      0.43877992130051
  H           1.44128670006790      0.76234162509541      0.39367189479805
  H           1.73047350769286      0.07152093459776     -1.20325368018664
  H           1.75240755013190     -1.50907949691953      1.41332049539728
  H           3.18792010888877     -0.91988842539926      0.57640962715247
  H           2.17473773217554     -2.14562914043318     -0.17756825987463
