19
Coordinates from ORCA-job NEB E -40.813414399100
  C           0.63806716708462     -1.08832242768820      2.06215201055112
  C          -0.44793235606696     -0.37895472372997      1.75911057357743
  I           2.50609344080047     -0.15966695311571      2.23405530567581
  H           0.62864812457716     -2.14781665713290      2.23079317058353
  N          -1.68742488884038     -0.95051924242350      1.49794285837757
  C           0.06463652254291      0.22472982171378     -1.58631858258992
  C           0.31641258854145      1.08964326970326     -0.61665503026943
  C          -0.72080289571567      1.51108130923215      0.37971859631305
  O          -0.39277294067331      0.98281197538209      1.66189745351926
  C           1.05552619315537     -0.28114708655942     -2.57068508942021
  H          -0.93243017400362     -0.16421369180277     -1.74619223749398
  H           1.31426730278200      1.46149887750190     -0.43573651405782
  H          -1.71654317783047      1.17797967623033      0.06703647896878
  H          -0.71388874565031      2.59455788818901      0.51618570419405
  H          -1.76417249518093     -1.92066328479043      1.76064807977982
  H          -2.47060460383957     -0.39558519626382      1.81463839723862
  Cl          0.58745134068519      0.27405696159175     -4.20704045200517
  Cl          2.71402265479858      0.24066765358606     -2.25571742432790
  Cl          1.02144694283348     -2.07013816962359     -2.56583329861463
