19
Coordinates from ORCA-job NEB_product E -40.847064848820
  C           2.18229054549847     -0.94283826735731     -2.56923443461276
  C           0.73329998633663     -1.32379016655881     -2.26532598675870
  I           2.85791553694067      0.07473731927564     -0.78067053531389
  H           2.82750142460139     -1.81554409150911     -2.66494155823169
  N           0.59412570712950     -2.50634785996128     -1.63584747769756
  C           2.26891278397494     -0.04553001498794     -3.80319593264444
  C           3.46110159033542      0.87035112919279     -3.80349187962284
  C           3.36735459862121      2.17830828180853     -3.94606819097997
  O          -0.19199082683969     -0.59841156828724     -2.53806480131323
  C           2.30692782565358     -0.91789984770846     -5.06243729301349
  H           1.34606847924434      0.54893402740692     -3.84245637151669
  H           4.42055270416308      0.38739529969593     -3.68217137641154
  H           2.41735231992088      2.67133685433283     -4.07017536652258
  H           4.23874673588727      2.80898681496236     -3.93451549864856
  H          -0.33014167716878     -2.79852701202232     -1.36437996146453
  H           1.37389190154682     -3.08964867631696     -1.39017166673094
  Cl          2.24742832295881      0.11086587947275     -6.50891516978982
  Cl          3.80221267598552     -1.88606530150177     -5.13245453483227
  Cl          0.93204936520994     -2.05001279993655     -5.12388196389450
