19
Coordinates from ORCA-job NEB E -36.712932817280
  C          -0.14873615591021     -1.21105908278801      0.00151192899987
  C          -0.93107769209469     -0.52846793514530     -0.97302629425642
  O          -0.74704645521299     -1.61364560490832      1.15684882097077
  H           0.56018349419180     -1.95435791261150     -0.35262658614360
  N          -0.35549633114014     -0.46925649072108     -2.32555718890430
  C           0.99809754570762      0.22096475779758      0.52914169942351
  C           0.02617560565741      1.18205495045939      0.94604076621746
  C          -0.76331369560004      1.85152024562833      0.04696508058864
  O          -1.76739857833418      0.34010383049387     -0.65176455721725
  N           1.84138129108937     -0.31510876599992      1.48875272055134
  H           1.51080733313366      0.41516336491334     -0.40900035455067
  H          -0.27784632357800      1.13745182680894      1.98381122361690
  H          -0.40378407764975      2.08855052607053     -0.94237728173694
  H          -1.56866822174935      2.47241693730048      0.40123080824389
  H          -1.55611187241988     -1.09326521076697      1.28129426313197
  O          -0.82757862491960      0.33613253077612     -3.09338444685222
  O           0.55511104980903     -1.23870999674487     -2.57926574991030
  H           1.37641963488933     -0.59979160075966      2.34039012732616
  H           2.47888207413062     -1.02069636980295      1.15101502050120
