19
Coordinates from ORCA-job NEB_reactant E -36.744732752000
  C           1.39812869099991     -0.03834659649934      0.22360578954919
  C           1.71911345492911      1.18284314096319     -0.25607586183251
  O           0.54126608966751     -0.21785857935022      1.21979425632678
  H           1.80608918843238     -0.94242634034353     -0.20183135977417
  N           2.63985150467589      1.30442821685159     -1.33924478582503
  C           4.26401441565355      2.66919964360570      1.31304111570609
  C           2.99321922549292      2.85309149713865      1.67905452447503
  C           1.95859226037029      3.35785799006052      0.73300771653725
  O           1.10392587443169      2.29054169048150      0.23857636166700
  N           5.23251134194026      2.08287098836055      2.08300114870360
  H           4.59020525984224      2.94540198269768      0.31873301530302
  H           2.66054134564621      2.56418011251741      2.66628050221652
  H           2.41906268847785      3.86627529327605     -0.11756720879199
  H           1.24702114110963      4.02750067062549      1.21954295775981
  H           0.23190240169682      0.65245215872483      1.52729909834230
  O           2.79162807023436      2.40018444273963     -1.84355312970799
  O           3.22851978370267      0.29601654617010     -1.68770098137042
  H           5.02655985875269      1.97730149235523      3.06359779529951
  H           6.19024740394402      2.30198564962497      1.86953904541603
