19
Coordinates from ORCA-job NEB_product E -36.719302511090
  C           2.38076382222208      0.69883716756828      0.84924639800381
  C           1.35525512660012      1.17660202171825     -0.12236251378986
  O           1.80908905726330      0.38535188472109      2.08121999314213
  H           2.88780695550269     -0.19689792383706      0.47219291742499
  N           1.85149236460582      1.22662617283320     -1.56941609230383
  C           3.48135236934181      1.81879824583966      0.98062720256762
  C           2.86226996119460      3.05401989947214      1.58366445393361
  C           2.56958619319842      4.14198313566370      0.89656076025050
  O           0.26093631090688      1.57615207447224      0.11966780098942
  N           4.55886137660314      1.24035105334715      1.74984980764342
  H           3.86932024268414      2.04403100281123     -0.01973936889994
  H           2.67391831617677      2.99859727749131      2.64820346508131
  H           2.75294387047819      4.21423186210186     -0.16332231955450
  H           2.13281609397859      5.00774017863974      1.36309091433855
  H           1.03221877021360      0.94537248376435      2.22026594977983
  O           1.39961467003034      2.11039038015185     -2.24735616424194
  O           2.65382337544701      0.38788031035904     -1.90051714449731
  H           4.21780367489319      0.92974421497450      2.65336287108589
  H           5.30662744865932      1.90878855790747      1.88796106904630
