16
Coordinates from ORCA-job NEB_reactant E -30.961901717850
  C           1.87293720069355     -0.07997710109949      0.17062619202742
  C           1.55469668222036     -1.35677339950811     -0.03755678203367
  O           1.53686043766761      0.89738257624957     -0.72099326249467
  H           2.41709182476608      0.20276132646462      1.05970015457682
  Cl          1.97537723683807     -2.50848019099968      1.21724340418143
  C          -0.69815336702206     -4.38454031920598     -2.62890899518728
  C          -0.64614087377885     -3.09749649280331     -2.31391021138961
  C          -0.22309883955845     -2.59579129228003     -0.97543972743745
  O           0.99363131718800     -1.85149888222194     -1.14520609542824
  O          -1.06797673896362     -4.89230573988117     -3.82258071031990
  H          -0.46519297737912     -5.16942212960111     -1.92355463424664
  H          -0.87245846359289     -2.33643548125622     -3.04774465508939
  H          -0.05178339959597     -3.42860996008826     -0.28392859575363
  H          -0.98594294067897     -1.92763617200115     -0.55152506966982
  H           1.98335383130009      1.71748459354000     -0.48886772413927
  H          -1.25150093010384     -4.17466133530772     -4.44295328759610
