17
Coordinates from ORCA-job R E -25.484609602870
  C          -1.05434698902778     -0.09575224831926     -2.88124685727734
  C          -0.09609097301233     -2.65100527332576     -1.64524123167230
  C          -1.35490817844659     -2.34415870984478     -1.93472808829939
  C          -1.82476734776145     -1.02843249098427     -2.33312688818060
  C          -0.93129271110682      1.80649028029868      0.48841523931562
  C          -0.29569298010611      0.69858502091420      0.15164365312402
  H          -2.13080505402450     -3.09517418715746     -1.85197705887359
  H          -2.87583001784358     -0.82836262618962     -2.17419582302761
  Br         -1.70477422367779      1.61246579596207     -3.34319152001018
  H           0.19001757471479     -3.64518845016797     -1.35185284136071
  H          -0.00667476091487     -0.22471882706172     -3.09874693586822
  H           0.68437477142016     -1.90945615784510     -1.66015610236473
  H          -1.84569570323142      1.77123580244699      1.04704860641566
  H          -0.65231474804412     -0.28966798334547      0.40293456556274
  H          -0.55225037336434      2.77949830506204      0.22296659728580
  O           0.86536372419648      0.63567251947634     -0.54302286728561
  H           1.18219799023029      1.53125923008106     -0.72008244748355
