23
Coordinates from ORCA-job NEB E -33.040839579910
  C           0.36995390113245     -0.37679093948068     -0.57188821624018
  C          -0.62924356566154      0.18884466859604     -1.37854160867598
  C           0.01266606915113     -1.55682129856442      0.30927512568027
  H           1.36022456284906     -0.43816104566280     -1.01277447724872
  N          -0.27496414022527      0.95613589649113     -2.47859808474071
  C           0.46996183488633      1.20536805230862      0.64086448138081
  C          -0.83072194133658      1.31561445869022      1.15052809307910
  C          -1.85912750907217      1.58009300400860      0.20455719065581
  O          -1.82414709856768      0.36641518113398     -0.90126568440084
  C           1.53295371516763      0.90185086212581      1.52827557766418
  H           0.76766280656780      1.90630569400867     -0.13644009305430
  H          -1.07996407059104      0.79940993917925      2.06541743378725
  H          -1.69207297626618      2.42781834822313     -0.45689477402513
  H          -2.87859080685570      1.52854030166333      0.56598912055109
  C           1.24006737014662     -2.34063467831348      0.75639524272536
  H          -0.64683383102023     -2.21920732461884     -0.25972659999757
  H          -0.55489055214911     -1.22697641975061      1.18120174255702
  H           1.79049912667523     -2.71304959533338     -0.10546806166930
  H           0.93724099937020     -3.19198596982099      1.36107800886322
  H           1.90405018512464     -1.71788957988815      1.34883027494755
  H           0.52847997616501      0.66059493013173     -3.00767107106334
  H          -1.04816872577034      1.29073861831388     -3.03239357172867
  N           2.40496467027971      0.65378689655897      2.22924995095306
