23
Coordinates from ORCA-job NEB_product E -33.097442225370
  C           2.07623990631998      1.54269384281643      0.87712716475137
  C           0.92029825570625      2.07684699526887      0.02762526603054
  C           2.01181279113998      0.01020859324543      0.95436270761865
  H           3.00931432534532      1.82883132716249      0.37434073689992
  N           1.00510919109641      1.74016532742050     -1.27981925823395
  C           2.04432758310667      2.22943967296513      2.26866872552698
  C           1.17161601158339      1.52803805213733      3.28101075405857
  C          -0.07127787495894      1.89049420792399      3.53133398191764
  O           0.01189329786207      2.74753702820821      0.45909355579642
  C           3.38435269135058      2.34939624253270      2.78806581759370
  H           1.65024996134848      3.24253597669665      2.11665516801888
  H           1.63109928176395      0.70417162287231      3.81143396304757
  H          -0.53805132310037      2.70379419989832      3.00183950646378
  H          -0.67598141841655      1.37076322874496      4.25528371242930
  C           3.28872932799000     -0.59916163654307      1.52174071580706
  H           1.84766491481273     -0.39169420262741     -0.04851403703917
  H           1.15374499826608     -0.27805054588465      1.56471734178888
  H           4.14556138423722     -0.33844085911370      0.90347406360845
  H           3.20384586175574     -1.68297981833118      1.55128304484229
  H           3.48534692894963     -0.24407077409000      2.52954298703119
  H           1.78567541653816      1.23711782974421     -1.66098994524494
  H           0.28452488658666      2.05799207656879     -1.90647697763601
  N           4.44600360071654      2.44847161238370      3.20240100492289
