23
Coordinates from ORCA-job NEB_reactant E -33.063498427720
  C           1.75015614372242     -0.06472365226133      0.09559296096094
  C           1.43693275859686      1.21621604714102      0.28519899437200
  C           1.06233973365996     -1.21313561117793      0.76476084101262
  H           2.56205961246027     -0.30758033527713     -0.57373319675070
  N           2.15521014695367      2.29285902904317     -0.23951288077750
  C           2.68197354288279      3.51109256031788      2.93583248063870
  C           1.48939428500471      3.32400599118345      2.37245829547424
  C           0.75671334572068      2.02107596847107      2.38349013796917
  O           0.37531070429577      1.59913539990457      1.08140282394933
  C           3.34293712937852      4.75316617696613      2.90385935533133
  H           3.20367086724427      2.71459801837473      3.45077580227244
  H           0.99416977598248      4.13627511840151      1.85718401912267
  H          -0.18951637146399      2.13495641956627      2.92446380279317
  H           1.35961062240907      1.24355262970473      2.87137274339199
  C           2.02050416121133     -1.98921486762318      1.66952867199579
  H           0.67085995722681     -1.89240681151272      0.00199097216598
  H           0.21873683755606     -0.84000588081182      1.34698886930047
  H           2.85841458136432     -2.37523389647393      1.09310067453295
  H           1.50764828471548     -2.82684686261802      2.13667510446425
  H           2.41447982303933     -1.34494832289427      2.45294057613464
  H           1.57833325837903      3.08712293801703     -0.47863731660055
  H           2.78953022785850      2.04059504647952     -0.98220514135048
  N           3.88763057180166      5.76224489707922      2.87807140959654
