19
Coordinates from ORCA-job NEB E -25.359725459240
  C           0.30403776627202      0.01312039892198     -1.27206034789049
  C          -1.07189424746519      0.14151728111367     -1.14338734647946
  H           0.69882493330175     -0.97381792109402     -1.44075443959077
  H           0.84319073657425      0.80724729642560     -1.76783014317509
  N          -1.67559332122054      1.39052625216976     -1.25213576800703
  C           0.78234268729448      0.10499425557419      0.66423835973119
  C           0.00292293066211     -0.91174858700702      1.19785606143230
  C          -1.41728645133558     -0.80033349758128      1.05669690062442
  O          -1.75623212268929     -0.77819162736230     -0.51264468600643
  C           2.28254927135754     -0.00529470420631      0.68721551108018
  H           0.42107502534825      1.12047639309851      0.80009185090602
  H           0.42205304874415     -1.90737417273898      1.24374970464452
  H          -1.84363551972529      0.14856954518137      1.37917841924851
  H          -2.00097548486142     -1.64696509235168      1.39946149340837
  H          -2.68267901693479      1.37298897114322     -1.20799588977786
  H          -1.29763410850782      2.01488080412000     -1.94512002270466
  H           2.73912801272033      0.68351748830524     -0.01922821197957
  H           2.60166704710211     -1.01703135225232      0.44917818700146
  H           2.64813881336293      0.24291826854038      1.68349036753438
