19
Coordinates from ORCA-job NEB_product E -25.420638536510
  C           3.50368895046936      1.74177290835825      1.45887812080544
  C           2.07595300841189      2.22742049121135      1.29039187526388
  H           3.79113834136447      1.11703163744764      0.61129682604002
  H           4.15199308559570      2.61778171104680      1.49204328315483
  N           1.22729203860357      1.30063097061846      0.78056380737005
  C           3.65960376494142      0.95125576168440      2.77267465409646
  C           2.94351107462670     -0.36278866856101      2.68856953402911
  C           1.91645704914223     -0.71021571415947      3.44144340831655
  O           1.71491427724766      3.34782002299213      1.56945410918079
  C           5.14240762282469      0.70795518223804      3.06180287389145
  H           3.23077843092828      1.54662315573954      3.58474923624305
  H           3.34175131584546     -1.05416863095013      1.95435270825500
  H           1.50902909213304     -0.04273325161442      4.18287823976933
  H           1.43888377913598     -1.67193704535584      3.35377038907074
  H           0.24691612473091      1.52713282837741      0.73857970578520
  H           1.49298635883648      0.33420589419868      0.71095377306502
  H           5.66922083436023      1.65276404181200      3.16958522443251
  H           5.60195219107100      0.14617783980392      2.25091333129822
  H           5.25722265973093      0.14077086511222      3.98279889993232
