15
Coordinates from ORCA-job NEB E -31.019653719220
  C           0.60552354213392      0.64287291288587      0.30801812085048
  C           0.11710130249934      0.57884741885794      1.64097946265058
  C           1.30207911467878      1.77157291580536     -0.21655204439392
  H           1.89241418088180      2.01555601552638      0.69781798464778
  F           0.43182993061990      1.73030913216607      2.35408523408178
  C           0.49395319300059     -0.61850014828588     -0.50963271657293
  C          -0.95882936962970     -0.68657300584950     -0.88509834335564
  C          -1.78802387891421     -1.57893774912811     -0.37348503045620
  O          -0.51745173428050     -0.27488302571583      2.17937395169454
  Br          1.58463632383761     -0.60548781807086     -2.14001603725055
  H           0.79865141858902     -1.49705656474999      0.06523195078781
  H          -1.28063082041308      0.05763125200796     -1.59967381572294
  H          -1.46953368289636     -2.30260521828892      0.35753396321210
  H          -2.82235125072309     -1.61071462816363     -0.66911242466432
  N           1.61063173061598      2.37796851100315     -1.20947025550858
