15
Coordinates from ORCA-job NEB_reactant E -31.108037231820
  C           1.84741858834484     -0.17462933030052     -0.01417269777009
  C           1.76285983779272     -1.33837555745978      0.64483682474617
  C           1.38821224655184      0.08379855843321     -1.31096912595444
  H           2.31589891177440      0.65650348256860      0.49221253405334
  F           2.26212154750979     -1.39255449377755      1.88507137909091
  C           2.00095086332682     -4.24822729716279     -2.46393034039587
  C           1.78660072345192     -3.04891894731273     -1.95172016415374
  C           0.70957170348412     -2.78940523693904     -0.94016386610503
  O           1.24967901717264     -2.52435577910287      0.35048982069611
  Br          3.34812392503273     -4.58622441104653     -3.73330481659810
  H           1.42137745784162     -5.12295259370447     -2.21225261565723
  H           2.39592666828965     -2.20420471791964     -2.23898454117391
  H           0.09416209264117     -3.68038552132887     -0.79510363328510
  H           0.07820782415507     -1.95521068991943     -1.26507379501983
  N           1.03288859263067      0.33914253497241     -2.37273496247321
