15
Coordinates from ORCA-job NEB_product E -31.116821188730
  C           1.96930821752986     -1.44102813448950     -0.57575751375379
  C           3.07384177574392     -1.57580119213878      0.45225913216396
  C           2.33200067056134     -0.44238728256398     -1.56480417515979
  H           1.07843826268238     -1.06968629075108     -0.04505970376724
  F           3.32988733762462     -0.37735852795883      1.02513346733654
  C           1.64233824048351     -2.79107244095216     -1.23071054914886
  C           0.43925539461123     -2.71371749687186     -2.10619539564027
  C          -0.58639740225294     -3.53834572190695     -2.00001946919082
  O           3.64877338705178     -2.54206324397453      0.79377942431954
  Br          3.19576792910862     -3.37847797033285     -2.32631970567464
  H           1.53663443313088     -3.55884909157980     -0.46091423125820
  H           0.46814433608228     -1.94231325353575     -2.86418224364636
  H          -0.61504972278923     -4.32018619396474     -1.25851866809966
  H          -1.43735328400927     -3.46409588243712     -2.65340131717093
  N           2.60011042444102      0.32858272345795     -2.36078905130948
