18
Coordinates from ORCA-job NEB E -42.239313728580
  C          -0.98065789035270      0.95950934081027      0.48894558115426
  C           0.22519768857245      1.63210753843745      0.24113290290841
  Br         -2.43553963183514      1.41486264784551     -0.65422235182599
  H          -1.31483660828548      0.79285746275387      1.50549409066427
  O           1.15376663620922      1.71901947680861      1.21922909202807
  C          -0.39889700807401     -0.88308487483301     -0.24524535443546
  C           0.79148342801450     -0.67204063567921     -0.93399644412098
  C           0.80341616447703      0.36060864479666     -1.89169871436722
  O           0.64075974503522      1.80215395548142     -0.94366110869236
  C          -0.35253139621337     -1.73732261124793      0.99038694866352
  H          -1.32020921428931     -0.99801557616520     -0.80251597858822
  H           1.71950163957166     -0.89428712002255     -0.42201556130222
  H          -0.07516518542329      0.48174010343302     -2.51438364060624
  H           1.73391414246675      0.58813554032981     -2.39080457709285
  H           0.81401979450562      1.48505055331779      2.09244367897024
  F           0.46130811804923     -1.21384840787149      1.93172340219311
  F          -1.55473062128471     -1.85800397253354      1.57242515742769
  F           0.08920019885633     -2.97944206566147      0.75676287702198
