18
Coordinates from ORCA-job NEB_reactant E -42.282368081740
  C           1.20200014755688     -0.57516100047185      0.31328169541620
  C           2.21594464385782     -1.30117513979496     -0.16151392012092
  Br         -0.39133671977797     -0.40166670141004     -0.68262506853243
  H           1.22261199788711     -0.05088661764182      1.25006144775278
  O           3.38765480355571     -1.47827831653231      0.50146665664074
  C           2.25867845443838     -4.46787046725275     -0.17384015049529
  C           3.22058823957855     -4.04910674691082     -0.97972975378370
  C           3.18094711161168     -2.76249309178249     -1.74219057151178
  O           2.12834071577475     -1.90262642144675     -1.36252346249559
  C           2.34244119163590     -5.74489060819452      0.59664263901303
  H           1.34374676927345     -3.91925307777771     -0.00663426879390
  H           4.11491766047892     -4.63792931257013     -1.12788989993637
  H           3.00341235017771     -2.97074493168057     -2.80234268486518
  H           4.14824202360576     -2.25486768965845     -1.64218608408201
  H           3.37154753360700     -1.02098683869784      1.34904303681841
  F           2.32109658900017     -5.52357355728405      1.92565715748359
  F           1.30715485300730     -6.56032959953444      0.33827531945441
  F           3.45591163473088     -6.44795988135848      0.34844791203799
