18
Coordinates from ORCA-job NEB_product E -42.298079292670
  C           1.57270069332342     -2.13984342132889      0.12005320401915
  C           2.72030659615358     -1.44719713210894      0.87316458305785
  Br          0.99730006643586     -0.95933108013572     -1.32241881564969
  H           0.69754337416302     -2.27353205534286      0.76391082434802
  O           2.67085584524373     -1.55182858906187      2.20109961293258
  C           1.99732631791911     -3.48989587101805     -0.48558747394596
  C           3.10751883046414     -3.35398130516579     -1.49461634907525
  C           2.99796742997789     -3.77791228538880     -2.73838777916326
  O           3.59422400723518     -0.85986360179747      0.31615184886766
  C           2.43745325314817     -4.43438886295488      0.63220808724899
  H           1.12201790678974     -3.95263352507451     -0.95842688078662
  H           4.00404184246636     -2.86805966906676     -1.13769986857940
  H           2.10364135995160     -4.25323328387841     -3.10715669322727
  H           3.80369607186713     -3.65906582212151     -3.44009927303391
  H           1.95225625275253     -2.09328133847960      2.55630450439289
  F           3.63986650318684     -4.14105354211232      1.13371696664933
  F           1.58245555605069     -4.39440606870330      1.68228427651705
  F           2.47722809287100     -5.70239254626033      0.22339922542785
