20
Coordinates from ORCA-job NEB_reactant E -44.929155675740
  C           2.14527421560612      0.72476507715701     -0.20242520153973
  C           1.63750233402887      0.25012722795942     -1.37618141792299
  N           1.70117888340711      1.77724055351251      0.60321825758499
  H           3.00851868145448      0.22881743128823      0.21799580380960
  O           2.10053189358828     -0.90757875041367     -1.87120837302542
  C           2.07655344237445      3.96749632322445     -1.84247306013926
  C           1.71720668174648      2.91313604254683     -2.55564006006861
  C           0.46325416057774      2.13050163650419     -2.31545111607666
  O           0.73464867255017      0.73229057339867     -2.20847499916794
  C           3.34227442024001      4.73194599223397     -2.09662158049151
  H           1.48894948721463      4.32876164761587     -1.01123962224043
  H           2.33840559749508      2.55832119538895     -3.36811087334284
  H          -0.19359338726831      2.19343501969402     -3.18781296040724
  H          -0.06080200435459      2.49320459705949     -1.42522318430545
  O           2.46426663969123      2.16450599520587      1.46774531849645
  O           0.57335138047286      2.22711793791550      0.44604208103821
  H           2.67820878220347     -1.36814830579217     -1.24889971717401
  F           4.27588845845395      4.43516889891509     -1.15587637004297
  F           3.90005503422884      4.40741048252395     -3.28846228556423
  H           3.19312662628914      5.82378042406178     -2.08070063941995
