20
Coordinates from ORCA-job NEB_product E -44.948468247550
  C           2.56129034448472      1.58935851759003     -1.28653750025513
  C           1.74792304197784      0.37582306110781     -1.88497992682089
  N           2.50877602734472      1.53769498743390      0.18304463560798
  H           3.60384813148509      1.38401902615879     -1.57085085069039
  O           1.94070470129300     -0.77134750913200     -1.28478587435918
  C           2.11214326386568      2.92252228557229     -1.90922957404402
  C           0.87955062205820      3.53065083046860     -1.28071475139058
  C          -0.34361046297035      3.14001100001657     -1.58397861415078
  O           1.06104034185051      0.52892508671857     -2.84670769322943
  C           3.28020783755359      3.91010915094261     -1.89506840461299
  H           1.89450226585903      2.69948811701212     -2.96127812802133
  H           1.05578970494748      4.31081630744911     -0.55544470477197
  H          -0.53005148401625      2.35621559352729     -2.29922183024661
  H          -1.20333636529309      3.58896782179509     -1.11950137053192
  O           2.99038407306385      0.52039062643844      0.66508721121575
  O           1.98904555382711      2.41272780698754      0.80920258881050
  H           2.49041783045397     -0.70101459064213     -0.46376958387889
  F           3.83039994948844      4.01433744572432     -0.66341047143263
  F           4.27715466364916      3.46302405091998     -2.70201023136533
  H           2.99491995907728      4.91658038391106     -2.23154492583215
