16
Coordinates from ORCA-job NEB E -32.511780758840
  C           0.66300289913680     -0.50940489739733      1.12105405423604
  C          -0.66225021630693     -0.09118020185064      1.03462513056780
  H           1.37498242154627      0.17393197992199      1.56023054875038
  H           0.82513218763401     -1.55211980845175      1.36797688953052
  N          -1.67031304068763     -1.09981767978748      0.78074149760339
  C           1.16677766347764     -0.31665255860992     -0.72538832269218
  C           0.78912922869093      0.98761189258720     -1.00122322161475
  C          -0.61050327577926      1.34054983268298     -0.84679270554997
  O          -0.95354305972849      1.12124767172809      0.62339703657557
  I           3.23347331379927     -0.81406735151851     -0.83251852922199
  H           0.57433123906134     -1.13995766057319     -1.10213868676175
  H           1.52068631217595      1.77924559883561     -0.93014142003875
  H          -1.31449884284138      0.70600526983327     -1.39004443974781
  H          -0.82782670423637      2.39162250990889     -1.01158361593972
  O          -2.68701837482590     -0.73730831940470      0.22429797031325
  O          -1.42156175111627     -2.23970627790452      1.12750781398996
