16
Coordinates from ORCA-job NEB_reactant E -32.536700072110
  C           2.47413084717671     -0.60464145994323     -0.58832574396361
  C           1.48236592478521     -0.78935285530885     -1.45229601583250
  H           3.24194622673099      0.13363275101746     -0.72099000849759
  H           2.52161470210434     -1.22670452551225      0.28701339893598
  N           0.49218438405493     -1.84575731764135     -1.20369852602076
  C           3.68923269435868     -0.68575401778808     -3.81475815822371
  C           3.34724331323783      0.54836030682293     -3.49981388114124
  C           1.98772834155408      0.93301175099012     -2.98692674908059
  O           1.17944115844651     -0.15532363246345     -2.59660447575535
  I           5.59438583658756     -1.19636443460706     -4.53060388732523
  H           3.02306288674139     -1.52749739313333     -3.73060556160613
  H           4.03379077670826      1.37453845371929     -3.61236310806817
  H           1.42486792413955      1.42577789799869     -3.78734861705487
  H           2.09506912556382      1.64284537528456     -2.15512014350037
  O          -0.34683056098846     -2.01955732286819     -2.05072061240787
  O           0.59566641879858     -2.46731357656727     -0.17173791045797
