16
Coordinates from ORCA-job NEB_product E -32.542840777750
  C           3.08645796448808     -1.12030423208501     -1.27680558736111
  C           1.66407264863725     -0.85512560625040     -0.91870890560669
  H           3.72049916296346     -0.57062189360952     -0.57773521550648
  H           3.28949063391302     -2.19111102689590     -1.19983330742838
  N           0.67145129564211     -1.79143727971629     -1.65910467500504
  C           3.34565835510616     -0.65601845506906     -2.71699021738792
  C           2.95635842523770      0.76218550099481     -2.92894576978698
  C           2.18324481484902      1.15977225787621     -3.92386857095274
  O           1.19458831970933     -0.04327222771453     -0.19881123461848
  I           5.48310036790166     -0.89180676033597     -3.13559228544364
  H           2.85287288195717     -1.31712753981229     -3.42961480674331
  H           3.34888553815215      1.46948196083974     -2.21058752665576
  H           1.79187976652680      0.46771738095326     -4.65212862220142
  H           1.90996299518618      2.19240572081231     -4.04852092410617
  O          -0.49173716327192     -1.56635410123415     -1.47306895511011
  O           1.15021399300183     -2.65068369875322     -2.36098339608574
