14
Coordinates from ORCA-job NEB E -22.312185864540
  C           0.97882180471618     -0.89813849397923      0.07268596634218
  C          -0.10636642036621     -1.16982536610282      0.93324822853618
  Br          2.71836950839855     -1.22541254315702      0.82795154626104
  H           0.93688644229703     -1.35138507723149     -0.91001097938744
  H           0.05406690503557     -1.19101861203104      2.01233465147979
  C           0.80406303553042      0.84599559800471     -0.41833552180250
  C          -0.52494800329538      1.25862855117199     -0.15781269631311
  C          -1.52278671197277      0.29828214595754     -0.50799401760364
  O          -1.30569335321266     -0.87306380073215      0.54435131103218
  H           1.57376419978920      1.40320965379092      0.10588276143836
  H           1.05255513156938      0.71917317420798     -1.46635598919994
  H          -0.70623599232945      1.80724168983644      0.75901913030250
  H          -1.39472910468518     -0.18185756724704     -1.47775041358606
  H          -2.55776744147468      0.55817064751120     -0.31721397749954
