14
Coordinates from ORCA-job NEB_reactant E -22.355072301520
  C           2.11510949312758      0.09920962707463     -0.18747995673958
  C           1.23974974949532      1.06757633495144     -0.42784899852495
  Br          2.70909478678670     -0.24881238390463      1.56664255733303
  H           2.52262736435864     -0.54723696587976     -0.94404171606181
  H           0.85741270260542      1.69203990905392      0.37435763127613
  C           0.90832187493156      4.64240230005637     -2.80921526262236
  C           0.95156236071450      3.70761952339849     -1.88031893327878
  C           0.04714035548985      2.50945847174695     -1.84722440606707
  O           0.76466788764481      1.29916611564966     -1.66943286147201
  H           1.56807485496471      5.49230922116079     -2.78909503307046
  H           0.20303212141609      4.60080026403469     -3.62266988739213
  H           1.66997866608216      3.75862817781654     -1.07221585589365
  H          -0.48216767714652      2.39716004911270     -2.79587554709170
  H          -0.69130454047081      2.62687935572820     -1.03858173039465
