14
Coordinates from ORCA-job NEB_product E -22.363526471770
  C           2.10961357385877      1.73690656579432     -0.95928404553143
  C           1.07261478301944      0.73118022236204     -0.53466122477660
  Br          2.81396636465561      2.46287851410329      0.72910111803795
  H           2.95190973373232      1.24140951106810     -1.44754518520701
  H           0.22525489203776      1.18316904954664      0.01261543519780
  C           1.53261423248803      2.84785204994828     -1.83538716052762
  C           0.37922144522983      3.56252104461080     -1.19979441007398
  C          -0.83551785491834      3.61021591127021     -1.71188564623561
  O           1.14910943603637     -0.44344280519560     -0.74352969965658
  H           2.32867935121489      3.56842091146852     -2.04798474763596
  H           1.21943277852858      2.39507046689116     -2.78031607174226
  H           0.60480439660021      4.06700174582934     -0.26923933425579
  H          -1.08224870322040      3.11988540784883     -2.63981979313425
  H          -1.63365442926307      4.14713140445408     -1.22966923445866
