17
Coordinates from ORCA-job NEB E -31.360798370580
  C           0.72561534717969      0.56595502335467      0.03733676691280
  C           0.33611864090123      1.64041401430660      0.91366530485113
  C           0.88645077529082      0.82550621085253     -1.38678603024896
  H           1.00007599403999      1.87879787246909     -1.64604428058362
  O           0.16294020971963      2.83238714213991      0.29781885790932
  C           0.49997353950987     -0.85026013253814      0.44127723213827
  C          -0.77532743775020     -1.29709021004738     -0.24322140605167
  C          -1.93702213702557     -1.60670344698689      0.28120469717870
  O           0.25198375136927      1.52314459493497      2.11974010616506
  O           1.55768554408858     -1.69086611651732      0.07744825335758
  H           0.39757673001013     -0.90682258801341      1.52860856192615
  H          -0.57883071732642     -1.26321080632281     -1.33007176626022
  H          -2.10464944385528     -1.58374371228009      1.34547208886431
  H          -2.77663735046244     -1.89609394842992     -0.32841656092112
  N           0.65590993588223     -0.07504274141505     -2.19490603882387
  H           0.01518176348372      3.51705698917964      0.96786351829855
  H           1.68295485494475     -1.61342814468639     -0.88098930471240
