17
Coordinates from ORCA-job NEB_reactant E -31.459016934910
  C           1.88831774943646     -0.15528948336425      0.15206232738586
  C           1.73415684915560     -0.25731395257219      1.48757381084660
  C           1.56059865653308     -1.09749980685841     -0.82050697418804
  H           2.32462247444534      0.76130534371295     -0.21626796268383
  O           2.12669758567288      0.76942391694363      2.26119446255394
  C           2.51426853009536     -4.16937325529001      2.19080123887602
  C           1.92750156155383     -3.37593838587860      1.30264237192608
  C           0.78277421118347     -2.47909106936858      1.65693553953095
  O           1.21294060573511     -1.24186032555193      2.23600884148298
  O           3.55687730101836     -4.98518274535978      1.95258958238351
  H           2.18749877519764     -4.23649524740999      3.21944572268998
  H           2.28664377603169     -3.33003477636301      0.28435709136704
  H           0.17092413534990     -2.92428122763161      2.44511324530241
  H           0.16276621288808     -2.27710478597383      0.77994266811240
  N           1.32799834845396     -1.84007772872658     -1.66829786336043
  H           1.94627689888484      0.55159522865418      3.18621694457773
  H           3.82753632836440     -4.91618169896200      1.02698895319680
