21
Coordinates from ORCA-job NEB_product E -29.193697948990
  C           2.88085390174310      0.46587051166468      0.67976537164572
  C           1.55839943030876      1.02201423986045      0.15596127210267
  O           2.68075686467008     -0.81816130865443      1.19597380627927
  H           3.61244685707316      0.39612457885887     -0.13598800741889
  C           1.63441234408824      2.23756011517570     -0.72754514306594
  C           3.43240992416135      1.43036198211429      1.76467189621027
  C           2.35977726965131      1.83109427290789      2.72689303246062
  C           1.94088856796094      3.07004340845012      2.90151719289767
  O           0.52782916141027      0.46974437176535      0.45771728549003
  H           4.21932365227036      0.88766245351375      2.29319337039067
  H           3.87036072245045      2.30888490697429      1.28983902150390
  H           1.91463149173587      1.01809947526480      3.28427405207898
  H           2.37042810352163      3.89772266587603      2.35965660612180
  H           1.15902015723239      3.31403247684395      3.59970067727625
  H           1.72300870353851     -0.91411328071606      1.33717969254488
  C           0.32128795284563      3.01035377563762     -0.74979300026076
  H           1.86853939897359      1.87173190686036     -1.73260727399143
  H           2.46054456651460      2.87497163909540     -0.41285760890526
  H          -0.49496740231698      2.34944737033784     -1.02863071939777
  H           0.37239383411310      3.82971757200648     -1.46184563549209
  H           0.10985449805364      3.41363686616262      0.23752411152942
