21
Coordinates from ORCA-job NEB_reactant E -29.176534970720
  C           1.32198332826881     -0.21544890397210     -0.47139330189343
  C           1.57587554202794      1.02385933319273     -0.05096770652939
  O           1.39372689155880     -1.31719722011771      0.32253716047005
  H           1.01737242802236     -0.43945325451016     -1.47938223786196
  C           1.44810439049402      2.23525489603685     -0.92842258997414
  C           3.41836513550636      2.79977037555279      3.97294590385252
  C           3.28620580005123      1.85055928542675      3.06694050034363
  C           2.89598637465585      2.09492727222738      1.64200668864975
  O           1.87416163739585      1.17405310536004      1.30152989669639
  H           3.71643456477223      2.58161628677315      4.98370127497641
  H           3.24420153817568      3.83728557170172      3.73882967897746
  H           3.45602669022258      0.81234407450822      3.31602415195733
  H           3.77356056179532      1.93527173955933      0.99455322628986
  H           2.55194750590576      3.12968523814969      1.51615930046193
  H           1.64788691345150     -1.01232609930010      1.20545828696234
  C           0.21772975013338      3.06305256074362     -0.55021742793227
  H           1.36169326852480      1.89983119680150     -1.96220171175336
  H           2.34329482996901      2.85781403185165     -0.85256411563174
  H          -0.68495182737755      2.47343929977997     -0.68925693432415
  H           0.15338558372926      3.95370950147896     -1.17108742541492
  H           0.26570909271682      3.36845170875572      0.49250738167772
