22
Coordinates from ORCA-job NEB_product E -58.393813204260
  C           2.00462269351335      1.23190999785072     -1.86678298328108
  C           0.55110896852502      0.98819740065255     -2.23495058584044
  C           2.06142987238610      1.16274910554447     -0.34550884804313
  H           2.62398603700259      0.42213313103089     -2.27592588810478
  N           0.30598207402173     -0.36293281299983     -2.94950996927874
  C           2.44789108264717      2.59094237198783     -2.45981256340188
  C           3.75448400725525      3.10108019121873     -1.91545262137099
  C           3.86497583385921      4.24233422625640     -1.26091839324827
  O          -0.38947221024140      1.64514836212405     -1.93829755566965
  C           2.56229116191436      2.45505944112431     -3.98301955493103
  H           1.66184733339218      3.32965174857794     -2.25765803496236
  H           4.61928417629346      2.48952960706671     -2.12571771036041
  H           3.01561500365505      4.87224683860140     -1.05363475269956
  H           4.81712537180846      4.58384288148401     -0.89585934087227
  Br          1.08660597660790     -0.45317746012625      0.23626062319260
  Br          3.87451778280968      0.98222415558768      0.32216930659509
  Br          1.23563865614716      2.69144120928906      0.50290455807070
  O          -0.83431743403155     -0.59158848805946     -3.22485175544742
  O           1.27441909402952     -1.05136287984066     -3.15599967098984
  Cl          2.92791785032081      4.03729152609176     -4.69546684868364
  Cl          3.83191072717744      1.29893539733707     -4.45214763082176
  Cl          1.00893594090648      1.87314404920062     -4.66861977985115
