17
Coordinates from ORCA-job NEB E -39.969652412170
  C           1.00116646984584      0.24838649195059      0.42264844915154
  C           0.16917447359285     -0.39175073066843      1.36323560118049
  C           0.86277923727134      1.74178359163109      0.32533161627402
  H           2.05138818145527     -0.03846610169894      0.44992133450613
  Cl          0.81552650054009     -1.88004415614434      2.05668894120163
  C           0.31817629214268     -0.75004356424736     -1.12593750711376
  C          -1.06332873871065     -0.55565377790854     -1.09189718399021
  C          -1.77534091364245     -1.03067652287761      0.03809190958390
  O          -1.08783587263458     -0.25257765524535      1.34574827536858
  I           1.34041427517884     -0.25033015608711     -2.91990107993429
  H           0.71141167231825     -1.68885188254835     -0.75262023693869
  H          -1.51765371371501      0.19441681003512     -1.72036679240202
  H          -1.57984747778467     -2.05035726880022      0.35831877284914
  H          -2.81732260628934     -0.74666082034506      0.11060177132502
  Br          1.33571672752133      2.47645535659101      2.12202036150260
  Br          2.13210781132368      2.55160084781104     -0.89841328847655
  Br         -0.89653231841349      2.42276953855245     -0.08347094408755
