19
Coordinates from ORCA-job NEB_reactant E -34.747458270370
  C           1.41365216177155     -0.02262970171696     -0.06732887835691
  C           1.36536709834891     -1.28651787995733     -0.52954053836037
  O           1.12219040264434      1.09906937695403     -0.78988649528934
  H           1.71774661619619      0.11651646937354      0.96175132329716
  C           1.70558645242286     -2.29752987147638      0.40922350788766
  C           2.68967006782375     -0.64818637287248     -4.59057683911209
  C           2.26616806950655     -0.47681310742370     -3.35041329267801
  C           0.91906027517538     -0.90911638272459     -2.85481811165003
  O           1.01516074782884     -1.78878108120160     -1.74602496668860
  C           4.03779323862206     -0.23100419865629     -5.08112563615744
  H           2.05514436489858     -1.10131769335845     -5.33951712141139
  H           2.90733394857179     -0.01918967687860     -2.60875782336516
  H           0.39517436559099     -1.48878298645938     -3.61820626437994
  H           0.32058151669313     -0.02860201740280     -2.59525445553763
  H           1.29830386970562      1.88741084627730     -0.26765103489503
  N           1.98531176675684     -3.10010439584071      1.17789236120175
  F           3.92834583724666      0.44436507001083     -6.27591944762509
  H           4.66785868264368     -1.10701685247861     -5.28325260122188
  H           4.54445051755229      0.43983045583218     -4.38059368565768
