19
Coordinates from ORCA-job NEB E -34.729215600550
  C           0.68512867938175      0.49772070491476      0.82815580464126
  C          -0.61179148257437      0.00600022104295      1.07877502717254
  C           0.86847794612549      1.85850714068230      0.48606544995100
  H           1.50599954269703      0.08151421451600      1.40337923398733
  C          -0.77511795304724     -1.25169627046355      1.91418104145184
  C           0.98802936555170     -0.25165122971487     -1.01972784789577
  C          -0.12771474275236      0.29958250340115     -1.67318430513351
  C          -1.40884690872230     -0.11370869181711     -1.33953138845987
  O          -1.60893153888034      0.40026964828186      0.40356712773391
  O           2.24911764459465      0.11167669437510     -1.32410588995419
  H           0.96721196840740     -1.29541052559789     -0.72184980245272
  H           0.00048205620141      1.27074290993039     -2.13395490676336
  H          -1.58696494471678     -1.15853953718025     -1.12560918229979
  H          -2.24893611235197      0.40682354794091     -1.77022571929102
  N           1.05580371580495      2.95282953591281      0.20254443078774
  F           0.42618222918462     -1.76887857375258      2.31861915256386
  H          -1.29096039277281     -2.02669500866643      1.33390932877791
  H          -1.35860593395367     -1.03241868668663      2.81569765401756
  H           2.27143686182285      1.01333140288109     -1.67670520883472
