19
Coordinates from ORCA-job NEB_reactant E -34.767884841620
  C           2.29421672785075     -0.35562359773302     -0.27290594800989
  C           1.61142601110416     -1.47333366630480     -0.57022564223817
  C           2.52536224706581      0.75793962815513     -1.08963139302447
  H           2.73623521562677     -0.27855371812000      0.71106901474368
  C           1.46808964560838     -2.59264524225258      0.43390352008417
  C           3.26938013842546     -1.70965280464710     -3.37400001979028
  C           2.30770647223078     -0.80259581216801     -3.47348386231694
  C           0.96877104993375     -0.92853923878537     -2.80749650482282
  O           0.95923422061236     -1.81206926526984     -1.69665434364891
  O           4.49204547530291     -1.63156726435720     -3.93681050157170
  H           3.15367838036385     -2.62491649118182     -2.81062397745458
  H           2.45571994519027      0.10390751576361     -4.04183920933415
  H           0.23337155621703     -1.36275480209618     -3.49504372181780
  H           0.61273573158529      0.06284731181207     -2.50272144243134
  N           2.76567244219521      1.70204131805494     -1.69960503216240
  F           2.06935024802421     -2.29885433787929      1.62276966360268
  H           1.93163900508934     -3.50756493488142      0.04697982997399
  H           0.40804273407255     -2.78271381145260      0.63768886136027
  H           4.58422275350113     -0.79405078665651     -4.40976929114134
