18
Coordinates from ORCA-job NEB_product E -42.737981184950
  C           2.97692818903100      0.12878416803531     -1.55078434375614
  C           1.79080240851751     -0.80787788097276     -1.49493670368599
  C           2.91688779605120      1.01253859703105     -0.39919719385963
  H           3.89336568268257     -0.47236914265962     -1.46171405621420
  Br          1.83907641117776     -1.93521555008553      0.09534941531652
  C           2.97061407879446      0.91646122965078     -2.88168927113213
  C           1.90298615768468      1.97860034168929     -2.91498406043033
  C           0.92613886383953      1.99234830153817     -3.80010515134250
  O           0.91175903954368     -0.91006315672541     -2.27403722536873
  C           4.33955500629736      1.55908326379263     -3.10433005615271
  H           2.81955137314452      0.20912234281157     -3.70553004754171
  H           1.99349468911621      2.74441481767290     -2.15679524513665
  H           0.82758037359304      1.23081481742658     -4.55547828984449
  H           0.17960456003543      2.76620650071608     -3.79598937001090
  N           2.84662776987417      1.71322424539721      0.49733254589249
  F           5.32599503786042      0.64465386721199     -3.06728244471331
  F           4.41094531965752      2.15043380042799     -4.30013406649568
  F           4.64328724309894      2.48293943704174     -2.18869443552388
