18
Coordinates from ORCA-job NEB_reactant E -42.726727800580
  C           1.76756657844183      0.43392946485053     -0.22605704601916
  C           1.49936373733344     -0.61581090585744     -1.01630109486873
  C           1.83083505311642      1.77505794134811     -0.62576561868397
  H           1.93338242270887      0.26489252221343      0.82795101418159
  Br          1.40022928427778     -2.35206868439951     -0.25569022237338
  C           3.42398048581068      1.86771313597584     -3.49278527123183
  C           2.89251037959044      0.65923543544147     -3.42877171924113
  C           1.43884729553246      0.39037331953888     -3.18568605680378
  O           1.25110982500566     -0.72101100630264     -2.32002426548799
  C           4.87877724789063      2.09246751893597     -3.76809584216797
  H           2.85981502516398      2.77579643977143     -3.34250546544811
  H           3.50233602805553     -0.22480117944203     -3.56803549330850
  H           0.97130648317281      0.07199109460892     -4.12403182109888
  H           0.92162334513670      1.27686684761479     -2.80857749592050
  N           1.87749069833101      2.88815860230067     -0.90456675251971
  F           5.55741228923769      0.95708625027063     -3.98787176097452
  F           5.06551661133586      2.86487211791337     -4.85075069720033
  F           5.49129720985821      2.71195108521756     -2.74823439083309
