15
Coordinates from ORCA-job NEB E -29.692613529280
  C          -1.15586999622557      0.34096126550634     -0.29208232250487
  C          -0.39391569818855     -0.46940193229212     -1.18743013269813
  I          -0.93803188000197      2.48312217743165     -0.72659558513694
  H          -2.22030434132699      0.13342017981332     -0.36794425408771
  O          -1.00863721456089     -1.44564354803182     -1.88443825122396
  C          -0.60241776125554      0.03770879307583      1.17490063936326
  C           0.83115291958227      0.18842440232179      1.19846523029791
  C           1.62722973671552     -0.04184883393801     -0.02496269913695
  O           0.93103707562520     -0.47756282065527     -1.19930345076501
  Br         -1.51180175156210      1.24181282086115      2.52573836654518
  H          -1.02152275032378     -0.93419226641314      1.44174393552567
  H           1.25901256796413      0.91306723754068      1.87137582108048
  H           2.35266719373308     -0.85304665833323      0.11939208646265
  H           2.20283550267606      0.85598298773734     -0.28881804822497
  H          -0.35143360285086     -1.97280380462452     -2.36004133549660
