15
Coordinates from ORCA-job NEB_reactant E -29.738643131990
  C           0.77986163789770      0.41596790068489      0.30679365842963
  C           1.95195575342556      0.32372245159998      0.93219804360717
  I          -0.91859330829478     -0.49087308313720      1.12820191460826
  H           0.64049417118454      0.92531660248735     -0.62653184437313
  O           3.09825770778917      0.88440600390752      0.46164810833182
  C           3.48150270320982      1.14517230830178      4.76526556395673
  C           3.52466020278552      0.99419322531752      3.45449870272671
  C           3.29648005322729     -0.32801143683115      2.78316395207646
  O           2.06136486712203     -0.35841591534546      2.08291228535723
  Br          3.76325195432199      2.81047767313968      5.60772638075212
  H           3.30168522877649      0.34059256666166      5.46081669113885
  H           3.69868666076419      1.83611060810725      2.79970524372678
  H           3.21056848512076     -1.13067779159775      3.51864288604675
  H           4.12293519960583     -0.54080410486309      2.09469829715326
  H           2.93778868306385      1.31722299156703     -0.38353988353864
