18
Coordinates from ORCA-job NEB E -42.124239082200
  C           0.51130911965420     -0.24943190215802     -0.88968154792312
  C          -0.69058593455627      0.49365768758430     -0.44916195090423
  Cl          0.09329719285433     -1.97768604415719     -1.23997192309253
  H           0.94208653211515      0.14807339581718     -1.80650492516864
  C          -1.27748726759566      1.50924588902867     -1.34039378415932
  C           1.46968337931811     -0.19042891772920      0.31747452885811
  C           0.55746306114315     -0.08887584254595      1.49215019857230
  C          -0.83067072742335     -0.61631843674916      1.48407383961434
  O          -1.55935277215967     -0.09078000395729      0.41456467629630
  O           2.42105026758135     -1.21144422544255      0.42731459801347
  H           2.06291442022155      0.72613899314189      0.21793775587839
  H           1.05736683554465     -0.14467768739739      2.45100681807513
  H          -1.37200837026502     -0.32580167681624      2.38936234682241
  H          -0.82375803308002     -1.71876081568012      1.44546177215067
  Cl         -2.64946183675945      2.31577196780013     -0.59413002106426
  Cl         -0.03764463899094      2.71564961326965     -1.76422080754947
  Cl         -1.84695787098572      0.77249086747704     -2.91599056598833
  H           1.97275664338361     -2.06682286148575      0.36070899156880
