24
Coordinates from ORCA-job P E -30.983243824040
  C          -1.75612355457353      0.25094940203114     -2.58574603225631
  C          -0.40550244531668     -1.70422228496371     -1.30362625332824
  C          -1.89221024388830     -1.82347549852840     -1.41048168270273
  C          -2.56593032967284     -0.86950418688284     -2.03362494818878
  C          -0.79359803122097      0.79930534672295     -1.53328945185473
  C          -0.03007150684336     -0.30991985395648     -0.76779079906156
  H          -2.38043594275738     -2.68141133895269     -0.97631693045432
  H          -3.63674680865812     -0.88187174557725     -2.15200360814127
  I          -2.99343928204216      1.86108575453887     -3.36590979816749
  H          -0.01158850207557     -2.47901110309340     -0.64806068064880
  H          -1.18859569581683     -0.09633966259601     -3.45292073589615
  H           0.04210511518423     -1.82500177727651     -2.29505250241728
  H          -1.35721039215449      1.40441508820164     -0.82131750913087
  H          -0.34695187262220     -0.28530860194093      0.29316726284851
  H          -0.06674497600770      1.44252115154962     -2.03106128995678
  N           1.40391675194747     -0.03225027188510     -0.86511502363283
  C           2.26506469192355     -1.15315766799170     -0.54080631724783
  C           1.76101451290312      1.10363942191145     -0.03431269831826
  H           2.08508068585006     -1.55552781953658      0.46834864378581
  H           3.29810780935864     -0.81227002489473     -0.59145058243893
  H           2.14143788591248     -1.94932912590198     -1.27044093535210
  H           1.64746079397276      0.88614642499410      1.03979665005331
  H           1.13939619668560      1.96198762430466     -0.27539938720627
  H           2.79956513991223      1.36816074972387     -0.22703539028611
