24
Coordinates from ORCA-job R E -30.907543749460
  C          -1.27966662030203     -0.09195987067942     -2.82337735128264
  C          -0.72758040996403     -2.91295262528902     -1.97012525339376
  C          -1.90572632625819     -2.29881074402610     -1.93583771871233
  C          -2.19887712586463     -0.97093700218588     -2.44575062923686
  C          -0.82833503020934      1.39753883179794      0.30145574130225
  C          -0.06299182598923      0.33305121142132      0.08309594640533
  H          -2.75485634163856     -2.80959758045567     -1.49997178668182
  H          -3.24679825638848     -0.70712885926213     -2.48846179484716
  I          -1.75493583670560      1.82636275994368     -3.52397074952042
  H          -0.60057345888086     -3.90159378213207     -1.56365157037224
  H          -0.22088660060991     -0.27046286682729     -2.78164435314221
  H           0.14574482040433     -2.46293030690599     -2.40922634761945
  H          -1.78014835809150      1.28459790451012      0.78695494227929
  H          -0.39597411067845     -0.64285658191467      0.41456291201678
  H          -0.56003742993517      2.39496917483592      0.00634459165651
  N           1.12674875605653      0.28109541007095     -0.61681842203577
  C           2.05534283559818     -0.76441918493235     -0.25943391341866
  C           1.74710938493936      1.52594161405262     -1.00338534354138
  H           1.50856468765323     -1.68362850805225     -0.05413931890203
  H           2.65448370897429     -0.50987624049494      0.62579793682105
  H           2.73768067310784     -0.94263861135724     -1.09298831832571
  H           2.12278852350807      2.09573608296268     -0.14367207104779
  H           1.02410703981543      2.13956163822496     -1.53814410296797
  H           2.58186730145868      1.31242813669484     -1.67088302543302
