24
Coordinates from ORCA-job TS E -30.891496665090
  C          -1.68693664266909      0.74937417046961     -1.27457132348974
  C          -0.32502032679600     -1.69648783767650     -0.69531287100469
  C          -1.66872077147527     -1.61728295378513     -0.81653794592126
  C          -2.35820173372150     -0.44582389998895     -1.19179710024008
  C          -0.99759941164791      1.10212951638693      0.65291983402063
  C          -0.04255640178121      0.18567288249457      1.03446880836538
  H          -2.27240419455212     -2.46104324854016     -0.50814453737258
  H          -3.43609213242204     -0.45336911664210     -1.13322760499542
  I          -2.79110315695337      2.49582715954556     -1.79282848817561
  H           0.13930932267186     -2.59100794387537     -0.31525798628862
  H          -0.69521994773787      0.81119392085212     -1.68703873612043
  H           0.33305029383849     -0.98248039158081     -1.15350872594609
  H          -1.96293646136854      1.01520373874983      1.12194447196714
  H          -0.33810762922066     -0.66946098470409      1.62167249070515
  H          -0.69953661309213      2.11221071841633      0.42682695334544
  N           1.31007349817648      0.34875215993103      0.93431081765778
  C           2.17565867361751     -0.75129384723296      1.27253243762244
  C           1.89822842112196      1.29921587880165      0.02554898256080
  H           1.69995806000118     -1.38395870190622      2.01823863279751
  H           3.10710961515391     -0.36235231205546      1.68790478405317
  H           2.41890160797231     -1.36440290642141      0.39588927473682
  H           1.27594226951743      2.18578166743732     -0.05543246385180
  H           2.04114380731807      0.87508080043922     -0.97678259586899
  H           2.87505985404851      1.59852153088499      0.40818289144305
