15
Coordinates from ORCA-job NEB_reactant E -30.928754822720
  C           2.08984111164374     -0.62719493104270      0.09593932926047
  C           1.62087802404224     -1.54578459337682      0.95244805295391
  C           1.77707024725569     -0.53579701365239     -1.26769653908979
  H           2.77081663009275      0.12870670201293      0.45900193160134
  Br          2.17218342723209     -1.49536893382569      2.76793314298206
  C           2.49378023209333     -3.91253071869896     -1.02446581178950
  C           1.33158517547986     -3.42384818586215     -1.42523170095415
  C           0.28663255990030     -2.88744756526279     -0.49021518376745
  O           0.78216385763037     -2.56661449849779      0.80008341253339
  Cl          3.66859486493197     -4.51412417417097     -2.11616951076401
  H           2.79600649935773     -3.97434677682076      0.01071535765745
  H           1.07142487643716     -3.38494253448410     -2.47133341232519
  H          -0.47641313604083     -3.65062335795946     -0.30122568463299
  H          -0.19935675114866     -2.01278366486394     -0.93768908182533
  N           1.55679238109224     -0.40749975349439     -2.38729430184022
