25
Coordinates from ORCA-job NEB E -50.824435148980
  C          -0.37370723902122     -0.51038247466270     -1.10708080412364
  C          -1.40552073510772      0.42316825866804     -1.34800080684036
  C          -0.76838201905333     -1.85451217879454     -0.54712653040638
  H           0.30237051404039     -0.63292581226921     -1.95445495529692
  N          -1.16562158857701      1.37922484667293     -2.39863733538013
  C           0.67760543963149      0.52004105445080      0.14700015511822
  C          -0.29161594085252      0.85962877664094      1.09395707164951
  C          -1.45549614186711      1.62252460143539      0.69244125269306
  O          -2.19369745873557      0.82341431308761     -0.38419524465003
  C           1.95027976209678     -0.19361068023138      0.55191903664538
  H           0.89615834914566      1.27668398849872     -0.60336502525803
  H          -0.32978245289476      0.33248911912528      2.03236566949092
  H          -1.24087301890815      2.56937722539419      0.19023384025483
  H          -2.20066633898513      1.75389566589558      1.47137786347325
  Cl         -1.62792584902923     -1.80085731713173      0.99042123088203
  Cl         -1.88429280939213     -2.59635751806458     -1.75906151104868
  Cl          0.61276692301263     -2.95940455551656     -0.40713235342572
  O          -1.74852702862619      2.44254682255153     -2.32101859061816
  O          -0.38406302186677      1.06580837406477     -3.28155391596952
  C           1.91141335961247     -0.91412576502159      1.89388022022816
  H           2.73124342986602      0.57177130382224      0.59291012219764
  H           2.24267927002416     -0.88986566378070     -0.23365705215948
  H           1.81381427009566     -0.20353355918267      2.71094012342070
  H           2.83995794369064     -1.46135789209347      2.03310323609546
  H           1.09188238170092     -1.62364093355887      1.94473430302788
