25
Coordinates from ORCA-job NEB_reactant E -50.852090832510
  C           1.56966427301075     -0.35255122355396      0.15623211480982
  C           1.83875882729919      0.83677175821133      0.71728319394588
  C           0.57806181565859     -1.29600254629849      0.72800352458862
  H           2.07648737095842     -0.64016911064402     -0.75091261084242
  N           2.82377740548792      1.68129892773321      0.02130855969423
  C           4.38570107607765      2.41682739247506      2.66876278259906
  C           3.29010876093154      1.72320222822029      2.93789124811170
  C           1.90670625086136      2.22125984521478      2.65743870193559
  O           1.20747173461585      1.32109452361257      1.77113422409432
  C           5.79475911900523      1.96950383831888      2.87765717352745
  H           4.28873062056026      3.41318855996941      2.25269083863082
  H           3.33376713851731      0.72178907123204      3.34074824342017
  H           1.91991526928756      3.22985953856391      2.23377291259333
  H           1.28680538320749      2.21130965609952      3.55756004593964
  Cl         -1.06816699447672     -0.59722026678342      0.65692763042545
  Cl          0.58296964299884     -2.82496553739124     -0.16528309157792
  Cl          0.95303893250692     -1.64037663447472      2.43750251440658
  O           2.63363921460179      2.87393466133537      0.04867087080727
  O           3.72478443816128      1.11825268863628     -0.55192937723881
  C           5.95149193930014      0.56489759587094      3.44353555838248
  H           6.28344937690989      2.69077048854423      3.54012854069412
  H           6.30771501651251      2.03320860580533      1.91277567020504
  H           5.47433738995406      0.48516992789933      4.41735208827909
  H           7.00653662662582      0.33012174989819      3.56004425773382
  H           5.51138937142634     -0.17027573849481      2.77400438483468
