24
Coordinates from ORCA-job NEB_reactant E -35.651266214620
  C           1.20941523193793      0.41287080729974     -0.14820752691518
  C           1.17318853312507      0.70929104335227      1.14660514557407
  I           0.57511287147746     -1.46236788992939     -0.84382679111507
  H           1.52042701151978      1.10184006027624     -0.90972643546634
  C           1.66832202940082      2.04543292182854      1.64323740401184
  C           3.59778502390877     -0.89491972600106      3.74962333703168
  C           2.47973085478332     -1.21912986323875      3.11233774210382
  C           1.20223283368337     -0.44913887320126      3.25898790011898
  O           0.60596745937800     -0.18655465843363      1.99907764704804
  O           4.80262629959792     -1.50284382154294      3.69675178998107
  H           3.63969152381734     -0.06084240143974      4.43991218646644
  H           2.42415162347989     -2.05156885811614      2.42845262790254
  H           1.36616844835996      0.46975886537746      3.83392889594292
  H           0.45007996417955     -1.05579388650249      3.77556189676252
  C           3.19529386930697      2.11247148644071      1.69529368975863
  H           1.25054267686622      2.24239888262006      2.63177844060582
  H           1.30139264909895      2.82138473978870      0.96812682819021
  H           3.59731537313546      1.34363114784779      2.35035581997332
  H           3.51354499892069      3.08505872391296      2.06329055517664
  H           3.61134450400223      1.96585719215573      0.70151955273696
  C           4.92870502633949     -2.62337524229725      2.85029974122480
  H           5.95972815264661     -2.95786773777018      2.94678828391806
  H           4.72535704798674     -2.35716946970376      1.80866819471984
  H           4.25157599304749     -3.42662344272362      3.15546307424838
