24
Coordinates from ORCA-job NEB_product E -35.655154348250
  C           2.51635527154427     -0.03985325507194      1.34404640783292
  C           1.54541297613410      1.02948663575366      1.78885365328835
  I           1.43635800777535     -1.27592477540895     -0.06511702994866
  H           3.33125412231575      0.38006913971324      0.75433564560485
  C           1.36443112381069      2.16268859640343      0.80590638660074
  C           3.08988465727466     -0.90841913571954      2.45568868925680
  C           2.03919725584692     -1.53852890663905      3.32535913245139
  C           2.05239553425362     -1.49295448037420      4.64317989922029
  O           0.98982054154512      0.99309953112411      2.85585943298523
  O           3.88122945852431     -1.87849545302991      1.78827631117824
  H           3.73902084774735     -0.26683839156252      3.08104979735984
  H           1.27873606758910     -2.09469998575065      2.79461069116651
  H           2.80794915875693     -0.94966379848107      5.18769294339058
  H           1.29238243915881     -1.97535895996872      5.23256862228946
  C           2.40234427758288      3.24717255256344      1.11012606589439
  H           0.36363444225821      2.57746167689194      0.93416447010458
  H           1.48091299219898      1.81404153253805     -0.22073191883709
  H           2.29330470021075      3.59510246672604      2.13470332748817
  H           2.26185408930707      4.09124526361128      0.43992639311613
  H           3.41406137279127      2.86816360083049      0.97903400786507
  C           4.65668703198369     -2.68582692857747      2.63551824703134
  H           5.20451232733485     -3.36461585626744      1.98534204403356
  H           4.03384966345538     -3.26159482439355      3.32803290421934
  H           5.36421164059992     -2.07985624491065      3.21497387640796
