15
Coordinates from ORCA-job NEB_product E -30.385608556730
  C           3.07862948016789     -0.08478799080299     -1.51289395598738
  C           1.58126867088067     -0.12904571461635     -1.43101030875727
  F           3.56117680795596      0.27223024602047     -0.28411474905880
  H           3.49789578525444     -1.06995413650244     -1.75311999037269
  I           0.72326739334654     -1.12905721152508     -3.15099489913198
  C           3.56025492513793      0.93569264787089     -2.57708928886593
  C           3.20261479327906      2.32896114590787     -2.14085240042780
  C           2.25385794118523      3.04717338912404     -2.71001003404884
  O           0.88380840019305      0.30430837274535     -0.58933447883695
  O           4.94571219059515      0.73007871986594     -2.70647859218484
  H           3.05639438274443      0.69592201490112     -3.52831176591445
  H           3.77676131230191      2.70014980422989     -1.30355829913704
  H           1.67717852716370      2.67439982471812     -3.54173891476808
  H           2.01269397823051      4.03738832360806     -2.36596763159095
  H           5.34638541156350      1.50584056445511     -3.11312469091699
