25
Coordinates from ORCA-job P E -32.202266567730
  C          -1.10228828400466      0.60324313072074     -2.06611997388812
  C          -1.08784345547453     -1.24914516629143      0.29285980361732
  C          -1.75101659792325     -1.56878767808388     -1.01166778792861
  C          -1.75175332803964     -0.75550480503636     -2.05374807091009
  C          -0.77863445429611      1.06468889757203     -0.63875570232656
  C          -0.11375502853291     -0.07023658220677      0.14799197135868
  H          -2.24365137405929     -2.53028285953102     -1.06306946762738
  H          -2.22872007867109     -1.05504041023790     -2.97640785564036
  N          -1.87347871827101      1.63452748301334     -2.75630079537560
  H          -1.85168281954873     -0.99535490767451      1.03593581548278
  H          -0.15135786667022      0.51290807477733     -2.61025788406006
  H          -0.55773144688260     -2.13211180319448      0.66103271635607
  H          -1.69502141384920      1.35150932842561     -0.12202370623227
  H           0.18478846251952      0.28869483094289      1.14118691103552
  H          -0.12755153926254      1.93868269135156     -0.68370316479948
  C           1.08491011731366     -0.51112088293870     -0.52667836403203
  C          -1.66952634223595      1.65082018867213     -4.18786986854098
  C          -3.28491477293756      1.64575813966717     -2.43106309510071
  H          -0.60502775029043      1.73593446880606     -4.40112935674188
  H          -2.17500219029256      2.52405970783433     -4.59978005753112
  H          -2.06058846709941      0.75652000007119     -4.69746716134104
  H          -3.42040423815781      1.56907678605732     -1.35504651859831
  H          -3.84890135227454      0.83163346651454     -2.90979751448772
  H          -3.70761022511335      2.59451438337471     -2.76307037239860
  N           2.03436316405421     -0.86525648260590     -1.05616050028946
