25
Coordinates from ORCA-job R E -32.122060260200
  C          -1.52699708757935     -0.33084168945800     -3.04548594171751
  C          -0.21106866257082     -2.72909218384131     -1.78021583239369
  C          -1.52128177327101     -2.50394808725133     -1.88071578024430
  C          -2.17559288462822     -1.35360689974852     -2.45683411870529
  C          -1.15816305425497      0.46865868533294      0.08640416823978
  C           0.11299803167573      0.09481162240587     -0.00835621813675
  H          -2.19908838367262     -3.25448607382941     -1.49091257178877
  H          -3.25376637936282     -1.35299750311865     -2.38992512985029
  N          -2.05808774066616      0.83323697461454     -3.52089629739803
  H           0.16647622665773     -3.63030571170283     -1.32898132520942
  H          -0.45063815988312     -0.36694230076343     -3.12776383900597
  H           0.52989554354303     -2.04024956957851     -2.14925996438345
  H          -1.80837998151422      0.05093890032729      0.83606107335743
  H           0.55312256385994     -0.64163887071445      0.65047387272109
  H          -1.58616300793931      1.19342663157339     -0.58531679970339
  C           0.97278114895105      0.61363715696306     -0.99662139267065
  C          -1.25838735630643      1.63798458794966     -4.41120664831395
  C          -3.48563360770061      0.98062901514067     -3.65163106816686
  H          -0.21188409802783      1.57152178776025     -4.11966613817268
  H          -1.57351664792768      2.68038795058711     -4.34045239311700
  H          -1.35614729292513      1.31999694307480     -5.45712935395064
  H          -3.97054129060297      0.69116000960069     -2.72038525455058
  H          -3.89484089304363      0.37073473013781     -4.46670588115129
  H          -3.71876891713049      2.02592849412959     -3.85248232271486
  N           1.66928370431991      1.03120540040879     -1.80689484297295
