25
Coordinates from ORCA-job TS E -32.112174826780
  C          -0.24588037363286     -0.18995098210157     -0.72520900206350
  C           1.28996039646407     -2.19642422603267      0.66752902438033
  C          -0.06163625035539     -2.28058461384735      0.50126442342146
  C          -0.82211681933003     -1.31411451062958     -0.16989526536619
  C           0.45649592279016      0.62718327681406      1.27615633913070
  C           1.26674632708771     -0.28945141913873      1.89780692126758
  H          -0.60727335647627     -3.02286281305141      1.06954677402267
  H          -1.89599297517620     -1.38766508960699     -0.09555895150876
  N          -0.92700972899817      0.80159075837748     -1.36827291136910
  H           1.80290992948059     -2.91388300502089      1.28739127305201
  H           0.79938876052486     -0.22797650145158     -0.99268716602059
  H           1.91727490564890     -1.68489358999819     -0.04075196819807
  H          -0.55326433301977      0.76777708092831      1.61951637827896
  H           0.90242040284294     -0.87732405637630      2.72749646589307
  H           0.89756257989565      1.43288640667764      0.71545707772238
  C           2.66542856920057     -0.18765316876462      1.78317675945594
  C          -0.20673251016314      1.96896936544310     -1.81248406147450
  C          -2.32878329447635      1.01312974175416     -1.09640445009829
  H          -0.21970122860222      2.77039624552598     -1.06301421481115
  H          -0.66186948283656      2.34970778853029     -2.72862565000021
  H           0.82797583099357      1.70837879215227     -2.02568259461649
  H          -2.50876844863796      1.30627392211950     -0.05545676031887
  H          -2.89089767730096      0.10403871753466     -1.30664478395261
  H          -2.70058074083111      1.80131349225428     -1.74801332432051
  N           3.80434359490795     -0.07886161209185      1.68335966749375
