25
Coordinates from ORCA-job P E -47.226617784430
  C          -1.26844192421336      0.39552410548645     -2.30240386243571
  C          -0.03990669447948     -1.74464884710668     -1.07562739565474
  C          -1.37988575747149     -1.95158438725785     -1.70801697981047
  C          -1.96495360897549     -0.93493462337958     -2.31935069058528
  C          -0.84654326426180      0.69626942104785     -0.85175350287105
  C          -0.00825036212092     -0.44344579736586     -0.24474316846856
  H          -1.82045683222548     -2.93421353510890     -1.66760454967707
  H          -2.92521691093485     -1.01516819161128     -2.80087743939800
  C          -2.15684567677497      1.50872985463513     -2.82308882241515
  H           0.23724576162227     -2.58900316346037     -0.44509251666545
  H          -0.37675277094152      0.36321000334140     -2.93914471706542
  H           0.70811282747479     -1.66374595813480     -1.87166864219373
  H          -1.75423662515405      0.82957476024613     -0.26270399842087
  H          -0.36336248057318     -0.65628509387981      0.76778090234699
  H          -0.28457184015607      1.63157170631570     -0.82179608128183
  C           1.43984261581116     -0.00134843139855     -0.09132905952393
  O          -1.88563011693028      2.23316409200383     -3.74184844967016
  O          -3.29573797791139      1.58771723872315     -2.12635792621364
  C          -4.20665605348533      2.60163183689882     -2.52909735379809
  H          -5.07261674591523      2.50824317026601     -1.87910435707883
  H          -4.49198478776321      2.46178108630165     -3.57350401830417
  H          -3.74845041165378      3.58648908590181     -2.42031545386583
  F           2.21249461322472     -0.96800096880658      0.43171761439831
  F           2.00505859983832      0.34637877610021     -1.25600693834595
  F           1.56583642397064      1.05961386024210      0.72284740699862
