25
Coordinates from ORCA-job R E -47.133702834300
  C          -1.29047936893779     -0.19037591554767     -2.81797670022079
  C           0.23601836877855     -2.79547819618137     -2.64702040957772
  C          -1.03716986238398     -2.60985323012738     -2.30478629126184
  C          -1.73666921427485     -1.34294417740313     -2.29866210020965
  C          -0.21194209094185      2.52035911377244     -0.55705379713187
  C          -0.46771490814557      1.55186834861539      0.30262817601593
  H          -1.62386868706713     -3.45900062161129     -1.97918854165960
  H          -2.70901454866283     -1.34270925378794     -1.82329506645512
  C          -2.03042496184557      1.06952101269500     -2.73699451241917
  H           0.68771521806309     -3.77167174027418     -2.61604056796783
  H          -0.33587326696069     -0.11238002331759     -3.31623827106948
  H           0.87573105931511     -1.98443003163672     -2.95058605596054
  H          -0.77172342405402      3.44052961581224     -0.55428901920654
  H          -1.24579307575872      1.60301408442931      1.05080507796815
  H           0.56040245764136      2.43412904535805     -1.30336862283688
  C           0.29445445128566      0.26474450993054      0.33959560985590
  O          -1.62271429362938      2.12808917009062     -3.16170300328441
  O          -3.22043779616183      0.95216368334960     -2.11460501781892
  C          -3.97850673268056      2.14573971728528     -2.01575106127177
  H          -4.88640135387343      1.88459986826423     -1.47831104062104
  H          -4.21591210220446      2.52790799010728     -3.01110872963370
  H          -3.41559034170619      2.91112375199462     -1.47561471693269
  F          -0.52701155681547     -0.80155539965448      0.36249240383901
  F           1.12016440461410      0.08787387085752     -0.69902493364690
  F           1.05505162640645      0.16831480697965      1.44836719150749
