25
Coordinates from ORCA-job TS E -47.121241815660
  C          -0.26077924043989      0.03645209792442     -0.97414536425717
  C           1.17958564131397     -2.23976869167471      0.02275889690380
  C          -0.16192127362991     -2.25893188486021     -0.17163162123831
  C          -0.87111767442761     -1.14842642811368     -0.67593223953672
  C           0.46293798909171      0.53937959381919      1.13044720060786
  C           1.24811969574524     -0.47008339237592      1.58363434761481
  H          -0.74552798847866     -3.07383137033204      0.23411859363026
  H          -1.95087020590802     -1.17847125404951     -0.64495238327796
  C          -1.02103613302389      1.24575926277137     -1.34306928962480
  H           1.67080763077436     -3.05250963301489      0.53190096692522
  H           0.77965509739677      0.08407825223788     -1.25510383544418
  H           1.81921502537418     -1.59624929654823     -0.55311996260256
  H          -0.56073187479070      0.60934592446820      1.44908484264591
  H           0.89699731825483     -1.20688358534872      2.28595623091170
  H           0.90233607136706      1.41911978525967      0.69224808541826
  C           2.73656903707605     -0.33562389605096      1.51880477022211
  O          -0.53706882120999      2.21080339514684     -1.88175794404106
  O          -2.31629482265780      1.17439501907973     -0.99035228821363
  C          -3.10668060613766      2.30793531381298     -1.31554856214475
  H          -4.11467029347608      2.08384770593419     -0.97629720065339
  H          -3.09355219935183      2.48370914467339     -2.39307260184846
  H          -2.72021674257806      3.19681090324733     -0.81243537726352
  F           3.38450772067791     -1.49169124090943      1.73219245397952
  F           3.18098006578910      0.14452026453910      0.34591750796736
  F           3.19875658324889      0.51631401036400      2.46035477331970
