21
Coordinates from ORCA-job NEB_product E -41.854859112250
  C           2.25025883061537      1.49507111831082     -1.18438398619715
  C           1.05536372825265      0.99174750185928     -1.95998667286353
  O           2.08123412485624      1.21946432718025      0.17458460895149
  H           3.17192654856310      0.99432678894109     -1.49220064005966
  C           1.30798722759188      0.38931139280828     -3.37425732826044
  C           2.37954653151110      3.03424036977533     -1.43274290295982
  C           3.51217766531539      3.53399429188039     -0.58588540373247
  C           3.36350053788720      4.33928786447759      0.44807882335555
  O          -0.06748261012616      1.03205048223295     -1.53932530266549
  C           2.62289654040157      3.37350498117402     -2.90138771229617
  H           1.44436566491895      3.49669226196294     -1.09708748324041
  H           4.49123819190089      3.18278599545258     -0.88019949137088
  H           2.39474833563729      4.69465075788333      0.75938543164956
  H           4.20406524069486      4.68214530117023      1.02565490464714
  H           1.19045586848428      1.48751498027699      0.43962415715625
  F           0.62901161410304      1.05225260239468     -4.31772781167489
  F           2.59674194370260      0.40193011349305     -3.73807751270804
  F           0.90625693783580     -0.88429605875179     -3.40915297315281
  H           3.47806797764452      2.82562047207169     -3.28980921432684
  H           2.82997562513835      4.43748805114791     -2.99158601082607
  H           1.75236347507106      3.14921640425842     -3.51291747942532
