23
Coordinates from ORCA-job NEB_reactant E -40.301354065510
  C           1.81104294862494     -0.19539915124638     -0.00118984638346
  C           1.46304499971934     -1.30345970225185     -0.64809023635330
  C           1.94917504538508      1.15743035167694     -0.61381750046364
  H           2.01129419994430     -0.26766693283071      1.05846799905711
  C           1.33733778282748     -2.62578922585183      0.08085812509940
  C           2.68519713478433     -3.73457211502098     -3.82490193534193
  C           2.84401442024498     -2.85728165422696     -2.85050053137930
  C           2.23218037551097     -1.48718943242238     -2.89283260263274
  O           1.13929877829824     -1.35144052713539     -1.98808297725940
  Br          3.43407458618431     -5.46701386064733     -3.77653435683771
  H           2.13270686229372     -3.53552724400841     -4.72989273719109
  H           3.40284130309714     -3.11079183150703     -1.96041406305657
  H           1.80154199999521     -1.28624582696462     -3.87642934849442
  H           3.00153981578323     -0.73685908500517     -2.66880591231961
  C           3.37797790048467      1.68341621207211     -0.47045713518382
  H           1.26904206349705      1.83771883072095     -0.09478571981687
  H           1.65731377723810      1.12422001692044     -1.66421650726347
  H           3.65875809853574      1.74060524976643      0.57840299555007
  H           3.45752623466030      2.67674174739867     -0.90459696928897
  H           4.08355516966921      1.02810215606048     -0.97700945829344
  F           2.56616760960854     -3.12408129853443      0.40274831005239
  F           0.68639464266349     -2.48457427809114      1.25934837978514
  H           0.81207425094960     -3.38374239887141     -0.51856797198436
