23
Coordinates from ORCA-job NEB_product E -40.310457774730
  C           2.48716209092908     -1.48850763716655     -0.83673578891427
  C           1.22789696948077     -2.18054185295742     -0.36931301565579
  C           2.18564729547033      0.02628759188307     -0.85840001165690
  H           3.28908077498677     -1.67927251923083     -0.11652172246940
  C           1.22740151965463     -2.57594213221612      1.12935530766753
  C           2.93970755910506     -1.99597561711792     -2.20987009112172
  C           2.02352227634938     -1.68257709217034     -3.33780452940880
  C           2.42855602711108     -1.09574583181866     -4.44998450846597
  O           0.24342468915613     -2.36911554929856     -1.02594555836213
  Br          3.13568398720057     -3.98074671576255     -2.08531971323373
  H           3.95215749565112     -1.64524089499582     -2.41877040525926
  H           0.99565045523220     -1.98805622645989     -3.20667047185070
  H           1.74831869002103     -0.88665866963376     -5.25666001037627
  H           3.45504503974008     -0.80092207385953     -4.60138808704483
  C           3.42694813745062      0.86138229053161     -1.14393682469760
  H           1.78207185496432      0.30974878206545      0.11592829571247
  H           1.42059220672694      0.22317858925390     -1.61191365871331
  H           4.22205071123087      0.62331948164197     -0.44108155251888
  H           3.18582171472258      1.91614885901175     -1.04110422434029
  H           3.78943058155526      0.69528960879329     -2.15470362345918
  F           2.41148989613502     -3.09405688541068      1.51526386093043
  F           1.04112182366690     -1.45316267274236      1.87026656413256
  H           0.42651820345927     -3.29023283234003      1.36700976910605
