14
Coordinates from ORCA-job NEB E -29.577358112330
  C           1.00954988490642      1.06036527859297     -0.12239814071553
  C           0.73636196894894      0.61907322822014      1.17004800303487
  F           2.02617903932483      0.43619373474352     -0.76087561774728
  H           0.98826202182843      2.11491277477061     -0.37158658665669
  I          -0.51123041909061      1.97763944336922      2.30183879780218
  C          -0.49271936822134      0.17921667511005     -1.13109408934937
  C          -1.02460675417909     -0.78672156173471     -0.28314116399481
  C          -0.11822406215034     -1.63670385730529      0.37911687276430
  O           0.69735531622893     -0.59637706915122      1.48024954490619
  I          -1.78587371368419      1.69088288030813     -1.86735417879490
  H           0.21652870747418     -0.12015535725271     -1.89099994362266
  H          -1.97494709289071     -0.59202268541483      0.19727683007127
  H           0.74836560882271     -1.98206663891414     -0.17455341216405
  H          -0.51500113731813     -2.36423684534172      1.07347308446647
