14
Coordinates from ORCA-job NEB_reactant E -29.610724273530
  C           1.90497401350235     -0.16765637326331     -0.20466179816658
  C           1.28757796352087     -1.29373187085567      0.13016991152367
  F           2.67914861620343     -0.09574218102791     -1.29679285457980
  H           1.85825702923517      0.75375399271326      0.35092279951244
  I           0.07329094423981     -1.21943535031041      1.88716886015006
  C          -0.76899612727015     -2.96904588527845     -3.02490750523725
  C          -0.57048123352156     -2.52820506416356     -1.79819671750887
  C           0.31340520205308     -3.23451774363310     -0.81510366034538
  O           1.46028968101474     -2.46540139136158     -0.47875617303119
  I          -2.00271744415273     -1.99084365278088     -4.41057936319014
  H          -0.32732280863087     -3.87449965476636     -3.40619154699841
  H          -1.02436712002797     -1.61002135482532     -1.45012478599334
  H           0.71191604408488     -4.16204232060598     -1.22961876439920
  H          -0.25577476025104     -3.45821114984072      0.10017159826400
