14
Coordinates from ORCA-job NEB_product E -29.627499730170
  C           1.13016663717309     -0.83483568439224     -1.38633159827539
  C           1.82759338834026     -1.34142735319845     -0.13984169733109
  F           2.09416773571304     -0.41881306385632     -2.26379848506578
  H           0.48794254203638      0.02667990852785     -1.17070085013094
  I           0.72248040009436     -0.90754029165903      1.66329747663790
  C           0.35182801480083     -1.99976828798184     -1.99969298720800
  C          -0.68871721567471     -2.55152447325825     -1.09329337462388
  C          -0.75927272489719     -3.82934101233064     -0.76454015437611
  O           2.84217264581949     -1.93659566540425     -0.09476730540885
  I          -0.60121948507783     -1.29715394344302     -3.83709047093586
  H           1.06137800564853     -2.76590495116234     -2.31677770527520
  H          -1.41902934630975     -1.84077546390007     -0.72948448139768
  H          -0.04991060186228     -4.55335413655410     -1.13127490266330
  H          -1.52877999580424     -4.19824558138730     -0.11010346394581
