23
Coordinates from ORCA-job NEB_reactant E -45.182036825180
  C           1.77458729615217      0.21850156725028     -0.24600422741020
  C           1.43158236402086      1.03601865849990     -1.23518344772791
  C           2.23763694258334      0.47853513284394      1.15505001918267
  H           1.70308034521396     -0.83182970838347     -0.49067271436284
  C           1.00645123247325      0.50533564621326     -2.58904338609487
  C           3.94578966774245      3.22802200884008     -0.55675184890149
  C           2.89372486860585      3.57335895072281      0.16788303124849
  C           1.48143885483893      3.21563437862814     -0.18015460638425
  O           1.34929404709543      2.40785521393392     -1.32124280225793
  C           5.34449955147586      3.60321129848704     -0.19242820066056
  H           3.86608674903484      2.63936024510473     -1.45771824985611
  H           3.00590321357232      4.16806443094798      1.06452523252733
  H           0.94996894778940      4.14468261086060     -0.42567922387873
  H           0.98351185978260      2.76591081472224      0.68647450128534
  H           2.79346117078305      1.40593540894394      1.25616018366366
  H           2.88617617702662     -0.33746917445540      1.46624093047691
  H           1.38989378025175      0.49989631016811      1.84206505116721
  F           1.23828205522024     -0.83393893466377     -2.72258542409166
  H           1.56437226297404      1.01687261000971     -3.38082055185334
  H          -0.06730278459629      0.66503156706636     -2.74265831029356
  F           6.11267800099481      2.52123069001005      0.03155216445244
  F           5.95180772414549      4.29558290567298     -1.17187671536320
  F           5.42357567281902      4.35819736857656      0.91346859513259
