20
Coordinates from ORCA-job NEB E -49.222959014340
  C           0.85462431187024     -0.89983420482095     -0.29233539732618
  C          -0.23249165365818     -1.48708295191475      0.38571836928746
  Br          2.52392455838840     -0.91234196539043      0.63634628077086
  H           1.00615922477297     -1.16960698278336     -1.33174988237284
  C          -1.37860105921167     -2.04010144506509     -0.44869986345821
  C           0.27574804518356      0.90504439063703     -0.32021910869698
  C           0.06413429885764      1.17431962721373      1.04245159709043
  C          -0.93885662954378      0.43282053070380      1.72323508543501
  O          -0.48454923361463     -1.13423178624815      1.60485214573283
  C           1.24991591224229      1.76794197876719     -1.08908675367503
  H          -0.61140040226529      0.74647116751997     -0.92983202541242
  H           0.87901354448852      1.58834174891521      1.61805337350075
  H          -1.91651079583569      0.39025982547266      1.25116143391283
  H          -0.99401920424999      0.57319653813198      2.79556152046696
  F          -2.15072475307263     -1.03182342006220     -0.96048832374053
  F          -0.91806099649566     -2.72615532672493     -1.51488771512688
  H          -2.03654994100423     -2.69312430748567      0.14199444261965
  Cl          0.33894934185945      3.24434628496589     -1.56151890418303
  Cl          2.66322261802485      2.28424470622818     -0.16119339464750
  Cl          1.80607281326382      0.98731559193990     -2.58936288017715
