20
Coordinates from ORCA-job NEB_product E -49.262935263890
  C           2.32215228821366      1.99030034455636     -1.77588539152086
  C           0.87757607018842      1.66604180567425     -2.10277788597521
  Br          2.65649168421856      0.84390826843683     -0.22382439178463
  H           3.02292030206194      1.66223311881724     -2.54427142772626
  C           0.67937350797415      0.48518642994306     -3.07549245448086
  C           2.51004037214065      3.46690891292221     -1.42605559695239
  C           3.71281380700766      3.70822182184375     -0.55550774860229
  C           3.65994885061459      4.38967554205873      0.57220230728923
  O          -0.05733010422450      2.18520759003385     -1.56606162104847
  C           2.63400380891076      4.25953162508283     -2.73358123371242
  H           1.60693290623729      3.81724089832859     -0.91041757750333
  H           4.63915294463148      3.28125363569651     -0.91130492000093
  H           2.74205458184087      4.81890847018212      0.93830403792198
  H           4.53599627529322      4.54043390967405      1.17750126447841
  F          -0.38968255260919      0.70214690957969     -3.86072423783117
  F           1.74448266763236      0.31544973994342     -3.89054184049990
  H           0.51811755487945     -0.45416951121979     -2.51787501562337
  Cl          2.60007379506868      5.99716080328265     -2.38721970686604
  Cl          4.15380424436943      3.87859713211093     -3.57960908479984
  Cl          1.28357699555050      3.86486255305272     -3.84125747476166
