16
Coordinates from ORCA-job NEB E -31.338911279030
  C           0.69363170664148     -0.50695345947213     -0.55869201946617
  C          -0.41731171388711     -0.29566118956085     -1.39365213513013
  Br          0.12558156976317     -2.33080211924676      0.76684542035915
  H           1.56678889760142     -0.94217606207117     -1.02797963796396
  C          -0.46089826744700     -0.84726231647740     -2.67945001319641
  C           0.98449904258713      0.57865368066203      0.48105729852038
  C          -0.30649106317704      1.13680349990244      0.97099686986367
  C          -1.54669790638808      0.58546078083612      0.42795702250299
  O          -1.56755964246131      0.23876204797885     -0.91611310064063
  C           1.79665379997672      0.11600177225362      1.60306351357830
  H           1.59514308428832      1.35420408539566     -0.01421719615585
  H          -0.34272231405540      1.56647456438543      1.95875987741424
  H          -2.42469985802391      1.20678786099859      0.61607074244053
  H          -1.66780316309976     -0.37282939008177      0.99572725221032
  N          -0.44874820586735     -1.29634584479496     -3.73833914251545
  N           2.42063403354872     -0.19111791070766      2.50796524817899
