23
Coordinates from ORCA-job NEB E -48.791295661170
  C           0.67387289853146      0.45004003907819      0.20604029359264
  C          -0.56066598270627      0.65268694402462      1.02735576734842
  C           0.68838106193542      1.36494688046875     -1.02636479836078
  H           1.55621515601017      0.68388152887448      0.80537233473168
  C          -0.47581745350076      1.21567849322093      2.37584186008643
  C           0.63052464233234     -1.05246519590315     -0.15480142116793
  C          -0.80396565694533     -1.43118453366236     -0.17332329577390
  C          -1.93220359734503     -0.48660059048733     -0.34148778293291
  O          -1.77605109392905      0.67145524092162      0.42766581736872
  C           1.36886202155187     -1.50953387772431     -1.42585543922110
  H           1.13432905389003     -1.56822342084760      0.67114861440776
  H          -1.01253795851881     -2.41832750294578     -0.56771851105717
  H          -2.85751545837987     -0.94767525506518      0.02501247638009
  H          -2.10290723014450     -0.25323789110580     -1.40639852462394
  F           0.81496870984861      2.66875274071396     -0.63236219831674
  H          -0.23558408225328      1.29308241876856     -1.60559429442680
  H           1.54885057767674      1.15137595033066     -1.66606450963584
  Cl          0.48359430952229      0.06962024594629      3.39963357235214
  Cl          0.41443002284327      2.79663480900963      2.45974682631075
  Cl         -2.05819430757163      1.42924286069724      3.10703158382078
  F           0.74138205899353     -1.04241033153058     -2.55589491204246
  H           1.36291042077777     -2.60108138377272     -1.49751087606615
  H           2.39712188738101     -1.13665816901012     -1.45147258277369
