23
Coordinates from ORCA-job NEB_product E -48.850841855040
  C           2.71309326082228     -1.61883707347254     -0.03020400253967
  C           1.51071484720339     -1.04347436807507      0.67317206854038
  C           3.05601944058001     -0.73886538671353     -1.24232874742562
  H           3.58018521445174     -1.61285345842540      0.63678876455370
  C           1.58491840734156     -1.02518490875938      2.21406201274828
  C           2.39111564724861     -3.09867484414703     -0.39763972889770
  C           1.01990327778827     -3.24176635191463     -0.99713219964171
  C           0.06025499680066     -3.96078696036762     -0.44840464934383
  O           0.56091301487397     -0.57411084479282      0.11959640713368
  C           3.45014419397367     -3.69525329603895     -1.33610588063487
  H           2.43487821861364     -3.67958804880774      0.52819857792179
  H           0.85703507675613     -2.72671712046895     -1.93215672214767
  H           0.20162625543077     -4.48510188545072      0.48325736479545
  H          -0.90862463110497     -4.05359144639540     -0.90615228489802
  F           4.40357732638666     -0.80443090186714     -1.47687336171921
  H           2.82275031007065      0.31049948926895     -1.03665124169132
  H           2.55028872722361     -1.05877871445456     -2.15479088590068
  Cl          2.23646682450083     -2.51471509813502      2.90218026764509
  Cl          2.70063251298471      0.32524672109556      2.57735187046779
  Cl         -0.00002746571450     -0.69532939338567      2.91559472459316
  F           3.26062541344041     -3.30268216314456     -2.63457217124551
  H           3.37242434741681     -4.78723928649648     -1.33269513384367
  H           4.46118478291109     -3.38606465905129     -1.05469504846985
