23
Coordinates from ORCA-job NEB_reactant E -48.840979026030
  C           2.02584656074829     -0.07531427332575     -0.11108342177332
  C           1.62129767023201     -0.99251382865880      0.76388300172381
  C           1.51454609791333      0.11741197028528     -1.50290292986223
  H           2.78487660023478      0.63304442857281      0.17969028624785
  C           2.17089501633205     -1.07161589289358      2.17047801712316
  C           2.32161722490624     -4.71438859591672     -0.48386113350430
  C           2.06456524056179     -3.44229490863094     -0.73680949300833
  C           0.71977422047599     -2.81053103857906     -0.54906995466894
  O           0.67484027129570     -1.95912193196637      0.59752719672767
  C           3.66465117453819     -5.34891026083313     -0.63940850015433
  H           1.55059459872371     -5.38967169903012     -0.14068365105241
  H           2.86026615807939     -2.78651545854457     -1.06221099119425
  H          -0.03647001412378     -3.56788213132495     -0.33053407533263
  H           0.42606400932059     -2.26139448865457     -1.45132149620306
  F           1.93149270594657      1.33200655475792     -1.97922016035995
  H           0.41888333256894      0.12597389764403     -1.53993793609753
  H           1.91038456258739     -0.63491376107843     -2.19921366751243
  Cl          3.13165549771222     -2.57256590359065      2.31733120364108
  Cl          3.19629485826939      0.28616503224046      2.62497602467165
  Cl          0.81556588494273     -1.16279301826420      3.31844988541804
  F           4.58826881011421     -4.47960793858334     -1.15739437134451
  H           3.61722492888012     -6.20673771278143     -1.32180672939201
  H           4.04906458974016     -5.68082904084387      0.33342289590697
