15
Coordinates from ORCA-job NEB_product E -31.580812748120
  C           1.29322160069068      0.22259543831924      1.67994461192251
  C           2.63651902197324      0.84140375274202      2.03280265052995
  F           1.43160963635214     -0.93216002491258      0.96892214360063
  H           0.73268857992403      0.92601668290727      1.04753681157648
  Cl          3.99466621817509     -0.18903106900434      1.70995733206168
  C           0.50058803911085     -0.03560943271300      2.98681598328337
  C          -0.85994251758428     -0.61169446789982      2.68426580190783
  C          -1.98684712251881     -0.04202769849539      3.06313237870105
  O           2.75635362869232      1.91959667419004      2.51905241008062
  C           1.23324730703377     -0.96080294043432      3.82958619213190
  H           0.40856494123399      0.91962779090121      3.51657826646006
  H          -0.84773220565589     -1.53964404291085      2.13049999843955
  H          -2.00435554583258      0.88042235571172      3.62070658558937
  H          -2.94188108089601     -0.48105602010259      2.83378489166826
  N           1.79219949930147     -1.70353699829863      4.49181394204672
