15
Coordinates from ORCA-job NEB_reactant E -31.565554398930
  C           1.07168334289742     -0.26315250567662      0.50509944913626
  C           1.38131445361821      0.93623444743897      0.99074606975488
  F           0.04383583691423     -1.01442677436274      0.96171245172347
  H           1.61268296565628     -0.73759412507188     -0.29423756432659
  Cl          2.70969899363325      1.76592599551676      0.27194612545207
  C          -0.14647850285623     -1.09496451590329      4.02948274497454
  C           0.47311275313318      0.03813626872579      3.70837436864005
  C          -0.12346063374231      1.09535195462247      2.83421875278422
  O           0.84074709242037      1.68393999867503      1.96725489809550
  C           0.43645117257331     -2.05564807121157      4.87923547988621
  H          -1.13127683942729     -1.33713249697117      3.65236588690744
  H           1.46554798080461      0.25252813413884      4.08300950311921
  H          -0.45639754867002      1.93684178628567      3.45273972108542
  H          -0.97892670892676      0.71194226291723      2.26850202461654
  N           0.89746564197175     -2.83668235912349      5.58015008815079
