14
Coordinates from ORCA-job NEB E -25.902581816640
  C           1.03189657299670      1.05497314474071      0.17199144093361
  C           0.76453007738721      0.25252897549742      1.26522541655839
  H           1.82907861611552      0.71955206934629     -0.47544326544437
  H           0.96159418001179      2.12590123505013      0.28801327913578
  Br         -0.22207592689018      1.09590689711505      2.74507356356038
  C          -0.45340429011767      0.49559014012791     -1.08661128452203
  C          -1.06108010824394     -0.60719622667441     -0.49826218551344
  C          -0.21407722651941     -1.65222563661087     -0.06944474175454
  O           0.68373968851621     -1.00441946876805      1.21734862701997
  Br         -1.51798526752281      2.04863181190318     -1.40523696340242
  H           0.24499524661129      0.34761274152055     -1.89866540784272
  H          -1.98562392662115     -0.45307067524350      0.04305338224773
  H           0.60853959308004     -1.92480946536182     -0.72234466123252
  H          -0.67012722880359     -2.49897554264260      0.42530280025618
