14
Coordinates from ORCA-job NEB_product E -25.962018027570
  C           1.09382749411821     -0.56361624580826     -1.26311012561559
  C           1.71893983859328     -1.48208568166198     -0.27024137998002
  H           1.87450788616607      0.10298541608158     -1.64573233122249
  H           0.35962257691535      0.06945778887278     -0.75533242544489
  Br          2.41837054001107     -0.47503289752877      1.27563681456928
  C           0.44182533628872     -1.35093780474442     -2.39567658249167
  C          -0.73990038245197     -2.13464592158867     -1.94434165795714
  C          -0.89224329699035     -3.42429418986458     -2.18194925940035
  O           1.84886099404464     -2.65352985109457     -0.29851897854183
  Br         -0.14195901630253     -0.04105664737204     -3.77426939056815
  H           1.17050260899707     -1.98935988827137     -2.89891643243466
  H          -1.49357468915747     -1.57039803203274     -1.41065995903210
  H          -0.15236777432843     -3.99478492739658     -2.71844875899964
  H          -1.75791211590369     -3.96240111759037     -1.83843953288074
