14
Coordinates from ORCA-job NEB_reactant E -25.936999977930
  C           2.01011280633445     -0.07340601210789     -0.13922709337217
  C           1.29914455206656     -1.18542596727028     -0.20224362612676
  H           2.70989610317731      0.16254279766484     -0.92069494025489
  H           1.92546982868606      0.60322379654882      0.68906526196110
  Br          0.03258427059211     -1.57507132265466      1.21227552069039
  C          -0.82344611514752     -1.94648199075002     -3.70854010129755
  C          -0.57814284511643     -1.83447421020676     -2.41594460331330
  C           0.31254602503362     -2.78138228375463     -1.67075269886450
  O           1.45579866173767     -2.12776717470608     -1.13712029557322
  Br         -1.94738575096559     -0.75221434657995     -4.64144413722103
  H          -0.42191536983295     -2.72991952470022     -4.33192156098056
  H          -1.00356415342957     -1.02572730920746     -1.83699112293257
  H           0.71575886249916     -3.55112202115048     -2.33134059625110
  H          -0.25525687563486     -3.26057443112523     -0.86012000646383
