20
Coordinates from ORCA-job NEB E -45.263989108390
  C           0.44530679285505      0.43279195730295      0.79298696738378
  C          -0.82408173359631     -0.18600342091734      0.73815467303134
  C           0.53331389842384      1.94878996102713      0.75055563259367
  H           1.09507656002850      0.08427900824339      1.59277197370029
  C          -0.96638884517741     -1.53749267451177      1.44285400951547
  C           1.24850010516250     -0.07618533430821     -0.84912815238988
  C           0.26487490205331     -0.65862072724998     -1.66140530161192
  C          -0.95912446162655      0.05479637390349     -1.77016083650691
  O          -1.60588341357535      0.01182041915054     -0.26874957179770
  I           2.95631732297925     -1.27488859385755     -0.40243696248981
  H           1.58184749159747      0.91742617831995     -1.11912285235669
  H           0.21781435770077     -1.73807962152860     -1.72293749002469
  H          -1.74540622848455     -0.41818567505047     -2.34667632225030
  H          -0.89424677417003      1.12362984187704     -1.94761269951796
  F           1.82910350481833      2.34237857229142      0.73726001882431
  F          -0.03439670728825      2.51265268251556     -0.33510634319455
  H           0.06167898105641      2.39414137676444      1.64191852665095
  F          -2.24884358483386     -1.76717580330206      1.78651705652873
  F          -0.61038496349338     -2.54046181659087      0.59374644383142
  H          -0.34507720442972     -1.62561270407908      2.34657123008046
