20
Coordinates from ORCA-job NEB_reactant E -45.306043723280
  C           1.50592657838349     -0.08996568684890     -0.13352508380228
  C           1.57514081217066     -1.33120016633458     -0.63882678845976
  C           1.90944906922333      1.21789391051835     -0.73994604758705
  H           1.10526821916211      0.00794629116160      0.86160437101215
  C           1.08930331599095     -2.48505001201525      0.23613808824926
  C           4.06490393154826     -1.91197094249675     -4.56885210554914
  C           2.90044888588735     -1.96625651745316     -3.95355950724279
  C           2.52548662816540     -1.03273530052351     -2.84440078707087
  O           1.99909482698493     -1.83427787875312     -1.79233990968380
  I           4.58142664941568     -3.18303253962376     -6.15504889553083
  H           4.83411530699161     -1.19832365111183     -4.32524923738163
  H           2.14914700901301     -2.69768408613008     -4.21169643545188
  H           1.75476946740929     -0.33862219132253     -3.20240152546325
  H           3.39816575985541     -0.46916640547366     -2.50234794102128
  F           3.23556033216465      1.27293077679153     -1.04905789980379
  F           1.25635543846072      1.48669278288316     -1.90475161770442
  H           1.70522599052415      2.05447278723955     -0.05672271536533
  F           0.17007499222510     -3.22159311670956     -0.42231971102498
  F           2.11520731373249     -3.31460338812512      0.52738092733019
  H           0.64362947269138     -2.14925466567235      1.18382282155149
