25
Coordinates from ORCA-job TS E -38.028570967450
  C          -0.74572702489212     -0.04277375149692     -0.89599623652650
  C           0.49981498445460     -2.32922443036566      0.39369615483101
  C          -0.83322511402862     -2.22181716742063      0.20773005521652
  C          -1.44293787154372     -1.12882452524503     -0.45117521632303
  C          -0.12844596493190      0.64246509343835      1.10387093834048
  C           0.69757488443710     -0.25014514837394      1.71749432213615
  H          -1.49001087445666     -2.91909349409214      0.71059861394104
  H          -2.52395164760229     -1.07629954508148     -0.42710567552473
  C          -1.43685741720087      1.12844210701314     -1.53440486994696
  H           0.90461540916877     -3.12741901150673      0.99317731681546
  H           0.29707718369452     -0.14835716828325     -1.15394016107997
  H           1.20338485236280     -1.80590457533806     -0.22773066233016
  H          -1.14907837704425      0.72177106668477      1.43001452482064
  H           0.32947487045290     -0.91578075247214      2.48272123299102
  H           0.28233960903999      1.50474876626334      0.60739093646943
  C           2.16005575693146     -0.08054009646008      1.69706926793547
  C          -0.46823687034153      2.17366859013751     -2.07504048385828
  H          -2.12650792777412      1.59090153071417     -0.82327841614284
  H          -2.04489311205231      0.75202214918295     -2.36327960147578
  H           0.11290045443263      2.62933106114415     -1.27694813700106
  H          -1.01328450281454      2.96402142468885     -2.58517812577993
  H           0.22363107826307      1.72221701787567     -2.78220047013098
  Br          2.67635987108465      1.40123343807746      2.99256354542268
  Br          3.14034469575905     -1.65304647679498      2.28903868973596
  Br          2.87558305460140      0.46840389771066     -0.02908754253563
