26
Coordinates from ORCA-job TS E -36.282886148370
  C           0.18669994830769     -0.57055963290889     -0.35308987295520
  C           1.68493782241984     -2.67766444570584      0.88596977941664
  C           0.34315176560698     -2.76423574838809      0.68500726227981
  C          -0.39422560640913     -1.74183119318323      0.06133453055859
  C           0.88513295820653      0.11552797050400      1.68215513766776
  C           1.74528280752007     -0.79296020100482      2.20506690612887
  H          -0.21633303506784     -3.54542548271926      1.18281054195905
  H          -1.47181739736746     -1.82328429103728      0.07854021709157
  C          -0.55551645805796      0.57582190939565     -0.86224557306737
  H           2.19780277880201     -3.41943442000657      1.47723035856636
  H           1.23220160814456     -0.57976110095129     -0.62667846076251
  H           2.31143550272943     -2.11390414087801      0.21851401924194
  H          -0.13439330803331      0.13437694727392      2.02412351714074
  H           1.48901891754126     -1.46848833770917      3.00179048147704
  H           1.24587933385766      1.00174986250953      1.19099931191727
  Br          3.62878640414972     -0.49453414428600      2.07997893300163
  C          -1.87871354948629      0.83313644775233     -0.49995402645538
  C          -2.54413302506933      1.93776290139115     -0.99501610075780
  C          -1.90295753720225      2.81274855062268     -1.85678728041098
  C          -0.58571595227450      2.57827110479457     -2.21568424289182
  C           0.08200337184375      1.47620753723102     -1.71856947118959
  H          -2.38777717804214      0.17013894965015      0.18376602279777
  H          -3.56836454996384      2.12141089288449     -0.70427524905466
  H          -2.42539153428588      3.67598529786152     -2.24131608351292
  H          -0.07748376295044      3.25953063871360     -2.88236060853940
  H           1.11048967508088      1.29941412819383     -2.00131004964740
