20
Coordinates from ORCA-job NEB E -41.556517737530
  C          -1.08608177789573     -0.26140212019371     -0.89005157697285
  C           0.00171466170162     -0.94606380871578     -1.44532712933836
  N          -1.35043582591001      1.02086802059285     -1.29723639307468
  H          -1.94143562027141     -0.84400202247947     -0.58010460562080
  O           0.01240134027190     -2.30576616751894     -1.29162488335879
  C           0.05287756488789     -0.10944934980849      0.97011946317962
  C           1.13921658514212      0.63083491041474      0.52882024782958
  C           2.05338635745324      0.02843583979998     -0.35200544825963
  O           1.07681776394080     -0.34496440884979     -1.77216629861317
  C          -0.89503175344788      0.45439974004206      1.97031320626600
  H           0.15997349712576     -1.18222543692879      1.07841820885067
  H           1.08863872761589      1.70871855569304      0.57028144323891
  H           2.36269899354414     -0.98700482958504     -0.13914207433391
  H           2.82570040605931      0.64210745427336     -0.78950084974334
  H          -1.99232137974237      1.54864941389915     -0.72630083811226
  H          -0.52773687607948      1.53779177631822     -1.57715142696817
  H           0.85830943362684     -2.64529252196872     -1.61298190311620
  Cl         -0.12181207195365      0.38338895108099      3.60494423615761
  Cl         -1.31419504744659      2.15261112213218      1.67665763677286
  Cl         -2.40268497862241     -0.48163511819782      2.07403898521691
