20
Coordinates from ORCA-job NEB_reactant E -41.571975960640
  C           1.36837374984286      0.19142350281856      0.32489574699901
  C           2.52537456906860      0.24678919831878      0.98660641688684
  N           0.28193675137352     -0.60139177010864      0.72753771944736
  H           1.25726569717742      0.68101124018645     -0.63032220680720
  O           3.63728410890497      0.92914441962276      0.54558124811444
  C           3.28604689723811      1.61210500069435      4.97959634436760
  C           3.24326104313199      1.36494336014776      3.67995225205843
  C           3.66357938556332      0.06754639317978      3.06135527896192
  O           2.68955154558429     -0.43303951584151      2.16529430447423
  C           2.89222068298280      2.88674874554795      5.63134411794937
  H           3.64248698541337      0.86880878258370      5.67940961556609
  H           2.88384964254021      2.10774463088598      2.98169683559020
  H           3.78441253696382     -0.71232789621100      3.81555494292000
  H           4.61551843542319      0.21627247679821      2.53436970312741
  H          -0.60772096341094     -0.12881957783754      0.62968936701170
  H           0.41426589781354     -0.94269302129622      1.67114724190466
  H           3.46783382590252      1.26179610364025     -0.34022157349651
  Cl          1.63571095047734      2.55962519229480      6.86381239007308
  Cl          4.31216023200266      3.58777021393795      6.47008787812193
  Cl          2.26158802600638      4.09984252063760      4.51311237672944
