20
Coordinates from ORCA-job NEB E -40.781953664840
  C          -0.40587908298191      0.81114314346136     -0.35180469755095
  C           0.83933794933623      0.57591022800733      0.29931841195512
  C          -0.46128417392671      1.10027148587578     -1.82973080033565
  H          -1.06490961919749      1.48204953955472      0.19407824567389
  C           2.01889096644061     -0.02090486618417     -0.40701425689020
  C          -1.26497478416791     -0.82792300253529      0.10775656386415
  C          -1.21309082010980     -0.86113774318879      1.51099106943449
  C           0.05404492291174     -0.89192206302439      2.12138187763568
  O           0.80042646360777      0.52563843040098      1.58455636121887
  Br         -3.02640883802172     -0.84753424280952     -0.64499356425373
  H          -0.63145902351812     -1.50374920935856     -0.45662707600406
  H          -2.04220001402178     -0.43828589665626      2.05900589008929
  H           0.78065968140144     -1.60360600970121      1.74372098894110
  H           0.08771886976054     -0.77559812643588      3.19591291649724
  Cl         -0.11840147585194     -0.32123572374277     -2.83535920187964
  Cl         -2.04181679230126      1.76470005103444     -2.31329653756916
  Cl          0.74595931184588      2.37256762841034     -2.24228030994940
  H           1.77650548314851     -1.02512162309178     -0.76098111585823
  H           2.84978033951305     -0.08707632578031      0.29092754579284
  H           2.31710063613287      0.57181432576397     -1.26556231081165
