22
Coordinates from ORCA-job NEB E -47.664454516490
  C           0.28219866590501      0.72887245569981      0.49561464545504
  C          -1.07764617954371      0.28313437380897      0.68440931079733
  C           0.45170051261153      2.15179420772997     -0.01523390908892
  H           0.89120412246581      0.63273062506416      1.39627749139755
  C          -1.45126503704846     -0.44744032973318      1.84932038322944
  C           1.07198903690909     -0.32883948989016     -0.67959616518343
  C           0.03915812821651     -1.11056358400675     -1.30152277933296
  C          -1.18344938247072     -0.41459214299809     -1.64930787021131
  O          -1.84045291841179      0.08786174343627     -0.37407248784267
  N           2.09857029138641     -0.98817285725126     -0.00583222303177
  H           1.45314558366502      0.45282881096058     -1.34050747609786
  H          -0.00234031174033     -2.16982726192455     -1.10228621017377
  H          -1.94918996184906     -1.04932382302569     -2.08915183637431
  H          -1.02929082183254      0.48313367345732     -2.25156669557258
  F           1.76764988694250      2.45171836896501     -0.12567721326933
  F          -0.07340943940144      2.35179870599472     -1.24351563886913
  H          -0.00209475269513      2.88654490146784      0.66881603248789
  Br         -0.77869021302610      0.16559999302262      3.51410363938078
  Br         -3.28536283710656     -0.91123865039482      1.93477183560803
  Br         -0.40463889377059     -2.60043744835385      1.63993219364317
  H           3.04139853702836     -0.68183476132832     -0.16060694331379
  H           1.98081598376616     -1.97374751070060      0.15563191636259
