22
Coordinates from ORCA-job NEB_product E -47.697841628420
  C           2.56805449985539     -1.60893835086826     -0.41280578296216
  C           1.32574143905024     -2.36492781782036     -0.03610271139186
  C           2.21509413442306     -0.20706166887251     -0.92817081298126
  H           3.22542705411740     -1.47566108119368      0.45119759003144
  C           1.24936518724221     -2.80343714031733      1.42408409965547
  C           3.36654856665039     -2.43314397853782     -1.48046112725009
  C           2.68216485654096     -2.45146676440440     -2.81726838336330
  C           3.24209364652814     -1.99698765284714     -3.92225080347139
  O           0.41746744171763     -2.62241995270955     -0.77068892947625
  N           3.57116864920037     -3.76438291111412     -0.92551197230864
  H           4.34341799967772     -1.94698142629248     -1.57073468430056
  H           1.69607883878047     -2.89556130866589     -2.83179131580423
  H           2.73985942819493     -2.05057136277821     -4.87211475830221
  H           4.21949628599721     -1.54237833308739     -3.91954975239183
  F           3.33088188294514      0.40097932352768     -1.39072339287430
  F           1.33722025033066     -0.22851515972317     -1.94568602598210
  H           1.79369420710193      0.43202997461986     -0.13386443744212
  Br          1.00734804580204     -1.13494838946091      2.42854186460155
  Br         -0.28711126354215     -3.93614880423182      1.68456906653332
  Br          2.83668169479770     -3.69856935317833      2.06011304350054
  H           4.39556752353871     -4.19942550292489     -1.31914025395941
  H           2.77893963104984     -4.36558233911930     -1.13264052006060
