22
Coordinates from ORCA-job NEB_reactant E -47.701686084750
  C           1.83947209657327     -0.17649755158131      0.02940296519675
  C           1.51283729033733     -1.46731839954826     -0.12645616303459
  C           1.97196037241868      0.84443856734401     -1.05436078098516
  H           2.02038022560688      0.21172666252016      1.01803336706008
  C           1.35322859076896     -2.36541640983439      1.07778750884425
  C           4.01462984333578     -3.68641218889406     -2.12655013726488
  C           2.79190323162549     -3.40706644803294     -2.58883894005816
  C           2.15945349180758     -2.07462447103199     -2.39518642154116
  O           1.29318955152946     -2.17342174596684     -1.22840408941253
  N           4.66306944228322     -4.87893652901906     -2.28635539716198
  H           4.61178149306019     -2.91528511391743     -1.65589981405817
  H           2.18489611952286     -4.17479304535231     -3.04284741877862
  H           1.51302442404516     -1.79257915366450     -3.22812846588545
  H           2.91851513399343     -1.31082047934288     -2.23195454240244
  F           3.23871502489410      0.88833539432244     -1.56526283536090
  F           1.15737423858359      0.60400565778021     -2.10779448284867
  H           1.74367268222405      1.85369001976541     -0.67934785381792
  Br          0.80294176481927     -1.47424490058094      2.69994204875973
  Br          0.07994024896444     -3.76627739229997      0.69069917758935
  Br          3.09838059970206     -3.21350358361526      1.40195046521947
  H           5.41733693253978     -5.08480340508191     -1.65435566834236
  H           4.09499720136442     -5.66829548396818     -2.54967252171667
