20
Coordinates from ORCA-job NEB E -40.790618320230
  C           0.49532716160295      1.03603876631663      0.39374166588352
  C          -0.72767997707877      1.29185981020539      1.02079692355395
  C           0.72009044680923      1.62653145506213     -0.97234832723499
  H           1.38467328726957      1.15158633736668      1.00695687011521
  Br         -0.64783069382532      1.25401022828471      2.98683157991847
  C           0.28185960023566     -0.98877912870129      0.29512884957159
  C          -0.96818127366450     -1.10506263470355     -0.30486446738055
  C          -2.11530466208497     -0.61325859180659      0.35978370379773
  O          -1.85093630514315      1.04799811512364      0.51541676491131
  C           1.49111408358556     -1.56650975804968     -0.37419797336673
  H           0.31654597631994     -1.07215008115156      1.37802511605866
  H          -1.01836802045575     -1.26506356796802     -1.37109162496405
  H          -2.21869085489839     -0.84010556234200      1.41739791846445
  H          -3.05364699243219     -0.63201965655631     -0.17776799102475
  Cl         -0.51510217442064      1.25799736862096     -2.17434984479183
  Cl          0.73748775480123      3.42969481094539     -0.77227232763715
  Cl          2.30987943650641      1.19090732859482     -1.62814174183869
  H           2.40822915181177     -1.12261082992012      0.00116482486515
  H           1.44736110811660     -1.44845531929338     -1.45259643791268
  H           1.52317294694478     -2.63260909002785     -0.14761348098865
