20
Coordinates from ORCA-job NEB_reactant E -40.815608459920
  C           1.97944287559841     -0.21109314295509      0.01283101767088
  C           1.61063087581807     -1.29016486116548      0.70503860055220
  C           1.28141382536881      0.33498537371985     -1.17720042053387
  H           2.86794097597221      0.32432632729904      0.30987187959326
  Br          2.70827145308869     -1.76412640432546      2.21627065418092
  C           1.85329761138891     -5.12222884177080      0.04975048435786
  C           1.82075605504100     -3.90609528889789     -0.47182280293608
  C           0.59148136745934     -3.05540493765609     -0.52048750135508
  O           0.57079418429277     -2.09050378618143      0.55890572604735
  C           3.07277901007967     -5.96846268473125      0.14620351042681
  H           0.94395608203364     -5.56188118765735      0.43991723776985
  H           2.72359364258794     -3.44626227172756     -0.85361903994570
  H          -0.31168014396870     -3.64298518071968     -0.35121280260373
  H           0.51791117396090     -2.52584988147239     -1.47587017811235
  Cl         -0.48050022754460      0.11261111502343     -1.12751779534218
  Cl          1.61577170941158      2.07694799306574     -1.32277332668145
  Cl          1.90665744121813     -0.45868698164215     -2.67397289239855
  H           3.93536432050980     -5.46638536245557     -0.28345055977498
  H           2.91507762873659     -6.91396227856118     -0.37122809612323
  H           3.28094013894685     -6.19577771718869      1.19106630520808
