29
Coordinates from ORCA-job R E -35.015197415100
  C          -1.71919295514777     -0.19733870337599     -3.20597811402739
  C          -0.34796759321269     -2.71543628090336     -2.23220759182533
  C          -1.60575166844706     -2.35367520924666     -2.00560771908661
  C          -2.18456508309855     -1.05095170492508     -2.29707869107968
  C          -0.86239188306770      1.37011852192398      0.40619653516930
  C          -0.23352662256990      0.32578142441650     -0.12080547537389
  H          -2.28407926219858     -3.06107605448416     -1.54203096229290
  H          -3.07226225755256     -0.81045468347743     -1.72734783342556
  C          -2.29302571722275      1.14588172178506     -3.56528980210539
  H           0.00733307863352     -3.70277793361816     -1.99075176467015
  H          -0.85672590081514     -0.47980564581284     -3.79497417278911
  H           0.37481895055656     -2.03827944681365     -2.65494927840957
  H          -1.66329263657164      1.24634842459843      1.11545958995033
  H          -0.49204939324287     -0.69511477443736      0.12679068350429
  H          -0.59415413349466      2.38234797981698      0.14910483398734
  C           0.81847322213199      0.46502967890417     -1.04938335396312
  C          -3.26186979618974      1.67596585792728     -2.50692356715962
  C          -1.13589493936435      2.13828855959109     -3.73158385162587
  C          -3.02882446039907      1.00199452283074     -4.90616699013731
  H          -2.77277490775555      1.71244196003600     -1.53539220197579
  H          -4.14595723840017      1.04751209252760     -2.43452366252265
  H          -3.58413419616211      2.68126062618638     -2.76954913763846
  H          -0.58355164245721      2.24115988760475     -2.80034141220909
  H          -1.51395404636145      3.11627025089959     -4.02187150181112
  H          -0.44306734852622      1.79627139176980     -4.49657436887642
  H          -3.85148548497128      0.29623349578281     -4.81297946980125
  H          -2.35162624424610      0.63964234459060     -5.67609100918889
  H          -3.42902135356134      1.96290667847842     -5.22243377558781
  N           1.68116151371438      0.57671501742455     -1.79622593502832
