29
Coordinates from ORCA-job TS E -35.003901902920
  C          -0.11070741660213     -0.21164800736070     -0.34620103784306
  C           1.22059587382311     -2.60585165247064      0.62255777342848
  C          -0.12288546089581     -2.45291241918422      0.62405175195928
  C          -0.77944655799350     -1.30650381715598      0.11966858115835
  C           0.86485107738781      0.32976810389806      1.59006027725532
  C           1.61213613660759     -0.70969600587395      2.06403764587452
  H          -0.72971802689178     -3.16290221268740      1.17139421850658
  H          -1.84635695310132     -1.24838196999620      0.28382451001478
  C          -0.81976368200754      0.98795894778915     -0.94037457897114
  H           1.68196744998933     -3.44143721883730      1.12260224583170
  H           0.89483465791464     -0.34552843738725     -0.71859454662697
  H           1.85919666902319     -2.06596210547775     -0.05312764597773
  H          -0.08055770232399      0.55235234260236      2.05160215182262
  H           1.24319305755400     -1.36324787535360      2.84056949473667
  H           1.34989740129151      1.12655879187155      1.05568014702566
  C           2.98211633645279     -0.81422336654566      1.76996805296554
  C          -1.96080015681461      1.50983871355975     -0.06364253426940
  C           0.16440586514109      2.13077963593807     -1.20940744117961
  C          -1.39590858851187      0.52019116285261     -2.28918325448632
  H          -1.58787466572949      1.84477078476248      0.90100252989988
  H          -2.71643619494433      0.74703691122222      0.10218434362938
  H          -2.44026357634357      2.35541398244345     -0.55200214095403
  H           0.49874682932920      2.59078815368846     -0.28272258729880
  H          -0.31630290940613      2.90272573188080     -1.80659945012948
  H           1.03502906754085      1.77370141030270     -1.75552942445977
  H          -2.11083783144113     -0.28548611239168     -2.14246980167642
  H          -0.60120548326552      0.15777550597919     -2.93735924055727
  H          -1.89960369232882      1.34461273576143     -2.78907209733885
  N           4.11169847654642     -0.86049171382995      1.56708205766008
