24
Coordinates from ORCA-job NEB_product E -40.791651078490
  C           2.35926067227468     -0.07483745381452     -1.33073957327881
  C           1.06491458450199     -0.66860952376169     -1.82542826070524
  C           2.07932288441548      0.91805706802870     -0.19589096844901
  H           3.01844613510316     -0.87437127818380     -0.98456355492646
  C           1.07291846660524     -2.16733635286172     -2.21882475835071
  C           3.05938478215715      0.59168764445609     -2.54717387863209
  C           2.29608321465012      1.78097554206693     -3.05722194949271
  C           2.80623509589706      2.99576059085057     -3.13523127076536
  O           0.03622063292442     -0.05892595694138     -1.93814725891115
  O           3.17098427012829     -0.41584952948871     -3.53336200862347
  H           4.06504075271008      0.90826673425357     -2.22709833809834
  H           1.29154162181605      1.57230129731408     -3.39665344630360
  H           2.24157128975991      3.82522212318739     -3.52444901429204
  H           3.81025124472950      3.21501773381742     -2.80723014001291
  C           3.35049203558552      1.45649360062832      0.44675492566902
  H           1.48696221500077      0.40244118567197      0.56339918349975
  H           1.47781858607165      1.74139190759545     -0.58337182726727
  H           3.99507105372291      0.64009563212822      0.76475211124719
  H           3.09735332057091      2.05250577555079      1.31987134074075
  H           3.90245720141272      2.08770305534859     -0.24360160504876
  F           1.03401817334321     -2.29764958700374     -3.56194151712817
  F           2.16765893896741     -2.82800467470490     -1.78486013688530
  H           0.18249918612524     -2.67288410644651     -1.80700181808481
  H           3.53949364152651     -0.03935142769112     -4.33908623590052
