24
Coordinates from ORCA-job NEB_reactant E -40.798015122060
  C           1.95683396491486     -0.15221418838631     -0.30382030652922
  C           1.30445154953252     -0.15952510850774     -1.46152005403133
  C           2.14565395509295      1.02974153313470      0.58747570170154
  H           2.38939042061849     -1.08162381227557      0.03841432947381
  C           1.13780866071199     -1.43873069922087     -2.25683668409838
  C           3.70221784494108      1.18543081978360     -3.65605151709997
  C           2.37908037530930      1.23270888776520     -3.73771966139850
  C           1.51853504615183      1.86829180628586     -2.69450789533894
  O           0.66990562665922      0.91918836455840     -2.03484659401735
  O           4.53501935275953      0.59523487373429     -4.53332907860704
  H           4.25078221622247      1.66543967912259     -2.85732373436487
  H           1.86137610741823      0.73942590298988     -4.54963888766190
  H           0.81206806324603      2.57495233615921     -3.13860566953018
  H           2.14432603404454      2.39290797130332     -1.96378025522477
  C           3.62458479203211      1.39884085491127      0.70773458129918
  H           1.76462165599783      0.77212511031761      1.57928715993047
  H           1.56904021266495      1.87686313212454      0.21522858564631
  H           4.19379281191555      0.56077744606110      1.10268335881831
  H           3.74821403431736      2.24750315598249      1.37589947655240
  H           4.03440550781085      1.66040031242609     -0.26521784340813
  F           2.23005217686225     -1.69502383544444     -3.03498547805386
  F           1.00788109223715     -2.52131475703961     -1.45390698255807
  H           0.26177597888118     -1.39170057010434     -2.92086518531802
  H           4.02718251965772      0.11140078431873     -5.19756736618146
