23
Coordinates from ORCA-job NEB E -44.971326676230
  C           0.41533481053704      0.89235100239866     -0.41467056883738
  C          -0.83094265654880      0.44405144916740      0.08915783991052
  C           0.43169091590399      1.40915639962083     -1.83492299761910
  H           0.96788204666273      1.58573475254387      0.21436369013664
  C          -1.22839614742772      0.72115963061626      1.51750653273078
  C           1.39911654292807     -0.73360478992170     -0.44267140586926
  C           0.61435624268993     -1.58228491331945     -1.23608367697010
  C          -0.71454338809055     -1.84322844509279     -0.79494344402171
  O          -1.49537295976527     -0.43732529480404     -0.59161362070376
  Cl          3.01810182265906     -0.37052716507376     -0.99046801930257
  H           1.41030296645952     -0.89423624739210      0.62963173784310
  H           0.83189593253436     -1.65281253244952     -2.29007871771974
  H          -0.81913890707606     -2.23936634228207      0.21166155919093
  H          -1.34878226541908     -2.35881286543514     -1.50578641966878
  F           1.64414621385360      1.81292616841231     -2.23501705034671
  F          -0.02545030621107      0.57641978113916     -2.76810549525273
  F          -0.34819571337796      2.51245491929640     -1.90767038991397
  C          -0.27647959232991      0.12006236921885      2.55579666020466
  H          -2.22944697237895      0.31325505356259      1.66327716244517
  H          -1.27471343885383      1.80240146290954      1.66277391148919
  H          -0.22839079014724     -0.96208630596712      2.46025006866535
  H          -0.63819617034557      0.35457729877415      3.55356998646148
  H           0.72522181374371      0.52973461407766      2.45404265714800
