23
Coordinates from ORCA-job NEB_product E -45.016204283040
  C           2.72924721495021     -1.40660774260157      0.65040235637851
  C           1.42186092360665     -1.76410125129124      1.39427488688662
  C           2.38769357693003     -0.41156075351479     -0.45699285498814
  H           3.40595784271180     -0.88211552829329      1.33289946495073
  C           1.05169951287640     -0.82581877964831      2.51093278741895
  C           3.41484405258390     -2.68167428895518      0.12745979978119
  C           2.90252982684060     -3.18182478198102     -1.18275221684496
  C           2.25564517970621     -4.32491226615489     -1.31106816394871
  O           0.79861401608397     -2.74985629685384      1.11728989236538
  Cl          5.18465070705788     -2.36426873604668     -0.02177908707472
  H           3.31282981419007     -3.45694100040783      0.89143646799664
  H           3.11428965920966     -2.56138761588310     -2.04163557678440
  H           2.03799710550870     -4.95315530365379     -0.46413030861416
  H           1.89758775803517     -4.66081114770173     -2.26791538848238
  F           3.40763460125280     -0.16711423261386     -1.28352444028087
  F           1.35608834585370     -0.79242369131991     -1.21726939774279
  F           2.04394214594973      0.78133467200827      0.06521066626437
  C           1.83126731833783     -1.21737894831647      3.77219016846575
  H          -0.01663225338114     -0.92782535000075      2.70492676416249
  H           1.27496983467565      0.20663510817689      2.24477069084336
  H           1.61587518597415     -2.24800907640530      4.04284200645934
  H           1.53600511022736     -0.57410210512236      4.59629928020214
  H           2.90340252081864     -1.11418088341924      3.62303220258568
