23
Coordinates from ORCA-job NEB_reactant E -45.010692262070
  C           1.59334797974091     -0.26418355046380      0.21630338027554
  C           1.33550397392781     -1.30391179896773      1.02443856544467
  C           1.99095780997408     -0.20427071799023     -1.21310430462322
  H           1.46994460670826      0.72257497112530      0.63218604437677
  C           0.92299377942400     -1.02961406888105      2.45057629645962
  C           4.18648275221969     -4.45904796468536      0.21536062562903
  C           3.53951431934075     -3.31885052457539      0.04579241756186
  C           2.06843502015663     -3.25794769481090     -0.24347139262848
  O           1.37343332354247     -2.62639387786538      0.82568486179430
  Cl          5.86473353689449     -4.53320120407586      0.55906394594547
  H           3.71688251646689     -5.42779643473590      0.13367868611347
  H           4.05135116085988     -2.37279019624436      0.13925442093264
  H           1.64665549239618     -4.26535607634074     -0.28205178853347
  H           1.88038460617258     -2.76820823438401     -1.20019951820532
  F           3.21057814517862     -0.72134602749286     -1.49141711444063
  F           1.13819369287094     -0.83650103915575     -2.05404115352713
  F           2.03669837758636      1.06824804164139     -1.63398056387532
  C           2.15498397385757     -1.03860451065804      3.35687776687472
  H           0.24084627843624     -1.82072928475546      2.76214975944496
  H           0.41319479890903     -0.07047310559854      2.52093285116076
  H           2.66690071922130     -1.99515671615669      3.28781954756562
  H           1.85909281277441     -0.87740018073762      4.38987689337798
  H           2.84679032334089     -0.25183980419104      3.06626977287618
