17
Coordinates from ORCA-job NEB_product E -38.673490549970
  C           1.74301111830114      0.96756294045769      1.36028553329581
  C           1.25850066667762      1.23739622169403     -0.06249592196491
  C           1.35001969846380     -0.45654230639588      1.74873049324666
  H           2.84132901686883      0.98453009707366      1.32787620301681
  H           1.36285477618095      0.36398783281499     -0.72947487146338
  C           1.25083047621139      2.05483574663576      2.32984766003623
  C          -0.14336828416409      1.83804572128388      2.82269063707733
  C          -1.16141721583299      2.58425007919813      2.43685948309366
  O           0.83126511811000      2.28318840800613     -0.44136448916767
  Cl          2.37187243317072      2.15059655856846      3.73659550894398
  H           1.32577254587104      3.01388396684711      1.80888764274752
  H          -0.27389841703864      1.03355274952313      3.53237565033007
  H          -1.03912835151427      3.39024847431874      1.73267654134018
  H          -2.15748110878814      2.40599376296058      2.80129427227096
  F           1.61520914181255     -0.75853839286988      3.01806760817613
  F           0.04782921365671     -0.70632881905272      1.55208270055272
  F           2.01689917201337     -1.34786304106381      0.99436534846790
