17
Coordinates from ORCA-job NEB_reactant E -38.675841285700
  C           2.14355655352601      0.24070639344386      0.60757175849808
  C           1.30362298460071      1.13712880825272      1.12606987068551
  C           1.74160990719272     -1.17981608344914      0.39110376857631
  H           3.14520770035296      0.49909847986350      0.31994149288203
  H           1.62601979377327      2.16197744272333      1.28079885769521
  C           0.17494546284737      3.48682033428233      3.72915782650743
  C          -0.17010111856657      2.24851222529712      3.41728584069771
  C          -0.71630893411119      1.86429065744156      2.07418163224412
  O           0.04975929441353      0.83216735780210      1.47121000188905
  Cl          0.80665931613155      3.92280658709164      5.26265636507308
  H           0.06368346396273      4.32205593896667      3.05281499602290
  H          -0.04051667247883      1.43686764252604      4.11786649058002
  H          -0.76818947345594      2.73692601888676      1.41135860450084
  H          -1.71573615955233      1.43342203727416      2.18211848030197
  F           1.34712887716477     -1.79741627242648      1.51990884319473
  F           0.72335806624739     -1.31791478784757     -0.47906661011291
  F           2.75530093795182     -1.90983278012859     -0.10117821923607
