22
Coordinates from ORCA-job NEB E -58.910556448600
  C           0.57482686614494     -0.54447449245264     -0.73560526714403
  C          -0.46907121659992     -0.06507052278988     -1.54916904191223
  C           0.45435859427280     -1.98514236619022     -0.27477987458855
  H           1.57805787063748     -0.34142080050199     -1.11339535727578
  N          -0.13635463573160      1.02406649123647     -2.46257677124921
  C           0.33592542179842      0.58655308909720      0.79094169701381
  C          -1.01666481865383      0.38524103394279      1.09375921019065
  C          -2.01615680989786      0.68912373688546      0.09531164788236
  O          -1.70969692734387     -0.12782322024443     -1.16489042682098
  C           1.36102413406991      0.38747727057327      1.88031642112044
  H           0.59064150593169      1.49474357956283      0.24279272767507
  H          -1.28952099448127     -0.27445838716261      1.90486647927297
  H          -2.00106681009867      1.71633990967338     -0.27838363784701
  H          -3.02229192866532      0.38490904414916      0.36736577049172
  F           1.52553309781647     -2.37934088262070      0.41925819783832
  F          -0.61760865351599     -2.23736028027954      0.47840386009512
  F           0.37842286624802     -2.78856292446233     -1.34125265045961
  O          -1.04667086294313      1.75015610991461     -2.78851574650022
  O           1.02629818815441      1.13199221451679     -2.79320706198838
  Br          1.31132646424656      2.04977202142033      2.96032468613948
  Br          1.01286799327549     -1.08474379192959      3.09515099378853
  Br          3.17582065533526      0.22802316766163      1.17328414427752
