22
Coordinates from ORCA-job NEB_product E -58.946088002920
  C           2.22771658723876      0.99988378896942      1.45570419857242
  C           2.26511641989894      1.94959844986089      0.27377909300382
  C           1.24907478216449     -0.11797900524556      1.05774169825930
  H           3.21033591868242      0.52903816703303      1.59613052756035
  N           3.57301756105401      1.84918308092188     -0.55761105598988
  C           1.74442202290683      1.73020688623157      2.72808807783702
  C           1.20700990960629      0.78188672308558      3.76700229962829
  C          -0.01203211137194      0.87923144936594      4.26318097964477
  O           1.39944699843013      2.65201620494583     -0.12068638113348
  C           2.87949760472161      2.55538238511272      3.33455467225566
  H           0.94556963982458      2.42690211740674      2.43589511909260
  H           1.88668006262288      0.00998647624671      4.09967949927580
  H          -0.70594542378181      1.63743700219968      3.93964576877519
  H          -0.36313217285315      0.19297164139639      5.01263649374743
  F           1.35125946107296     -1.18331949648977      1.85270715267034
  F          -0.02187304292246      0.28093155149038      1.08901935791066
  F           1.50122625933883     -0.54150245767400     -0.18629010871038
  O           3.58854786157127      2.50275336717897     -1.55647804014027
  O           4.43129605919993      1.12347146498209     -0.12285818524626
  Br          2.19491588693715      3.61377918226663      4.81353692090156
  Br          4.33618355890902      1.44084127411146      3.99547627733073
  Br          3.64556615674927      3.79909974660342      2.00634563475433
