22
Coordinates from ORCA-job NEB_reactant E -58.943992205030
  C           1.90838824822975      0.19656344792144      0.28857585803619
  C           1.48376321549601      1.43318563509261      0.01709213599603
  C           2.02228610455485     -0.54003681056363      1.58089383993268
  H           2.27506791571358     -0.37503913134566     -0.55561185452583
  N           1.57274512833678      1.83890198313247     -1.43495437754274
  C           1.86065047551005      1.94349189002877      4.16061504793026
  C           1.86848094995622      2.43068024189977      2.93011855857870
  C           0.65658056514287      2.45273163829729      2.05280476818759
  O           0.97272487438867      2.45778471637416      0.66808054380258
  C           3.00604866415125      1.93056013816661      5.09514443238939
  H           0.95921456447586      1.51213328411774      4.57936003919487
  H           2.75870356414238      2.86502255822598      2.49470194364869
  H           0.13171159715663      3.40561209874143      2.19008499168741
  H          -0.03316158117841      1.63759338665970      2.29249108609012
  F           3.04986904142502     -0.10287900470239      2.33590950157371
  F           0.93126474312013     -0.45872855910094      2.36693227615791
  F           2.23543183413952     -1.83732024242850      1.36685006755334
  O           1.17501747793867      2.93695637827935     -1.69702122339432
  O           2.03056336617368      1.03385009154564     -2.20077743028910
  Br          2.57939273756632      3.11247288371313      6.62443125537784
  Br          3.26834635699680      0.11421220062055      5.79448790305195
  Br          4.68321015656336      2.53015117532448      4.33379063656274
