23
Coordinates from ORCA-job NEB_reactant E -40.954343359090
  C           1.74365617902661     -0.12382256556542      0.29046463019426
  C           1.45744026123724      1.09258519892933      0.78028634697831
  C           1.96089028572894     -1.43495115506219      0.96486531822502
  H           1.80300941154992     -0.19676659556777     -0.78311730316433
  C           1.21253647591011      2.23170622716380     -0.17312437587958
  C           4.11347699539409      0.20789131638408      3.88020536184879
  C           3.29828417919332      1.07099112443939      3.30113021697178
  C           1.81509338712832      0.88662170450593      3.18305969622244
  O           1.29804647236482      1.54330832563178      2.03468805584840
  C           5.58862110072825      0.39800026499807      4.01643830249044
  H           3.75171282711732     -0.72205846571126      4.29362794496895
  H           3.67888579230254      1.99414939843376      2.88610019101008
  H           1.31813738451821      1.40269651042162      4.01390928927939
  H           1.53598860445819     -0.16623119822156      3.22841540956024
  F           3.10118376351253     -1.49800528720757      1.71681682754368
  F           0.95364952678504     -1.77215888725709      1.82670291900493
  H           2.02776810458456     -2.25034063809397      0.22931517520329
  H           2.06044962258838      2.91398569786017     -0.14411009662813
  H           0.33310077136424      2.78250457565260      0.15148256659987
  H           1.07044377597038      1.88192760224683     -1.18922886168613
  F           6.00644622087506      1.60800811991071      3.52170444278405
  H           6.12925520039148     -0.37681633591443      3.45865942309443
  H           5.89362365727043      0.36547506202320      5.07010851952983
