23
Coordinates from ORCA-job NEB_product E -40.962076931270
  C           2.88376902940631      0.51564770583007      0.96687960936663
  C           1.43016137793510      0.95306052209023      0.74702067172533
  C           3.09204045818801     -0.87813991955514      0.35945266964216
  H           3.50932589810049      1.18419550373931      0.36009316342789
  C           1.07569349523505      2.31228603601354      1.28051060277384
  C           3.31122592386603      0.68791678860844      2.44632984614408
  C           2.35384746838990      0.03856506516421      3.40866590755853
  C           1.80494011689319      0.67739706891197      4.42432313732187
  O           0.64114397258750      0.25828687149274      0.16460189575577
  C           4.74018380399740      0.18578860351125      2.71571759155245
  H           3.33925267355279      1.76455516057156      2.64769778966314
  H           2.16223966625686     -1.01064428179153      3.24718111618150
  H           1.99772030570464      1.72147915427077      4.62022337669754
  H           1.14325241877212      0.18080103585399      5.11196861958615
  F           4.40047911238255     -1.06898270422134      0.05205709238316
  F           2.73113659378152     -1.88619702068427      1.17294393604137
  H           2.51553099045545     -0.98467086696607     -0.57379729917012
  H           0.87189525358548      2.22364876633337      2.34640432415996
  H           0.17269270655974      2.66556587263107      0.78945660059315
  H           1.88369551694714      3.02347576335289      1.13588463780112
  F           4.80298533181405     -1.17248471902029      2.82861991935397
  H           5.09286072648390      0.58908883498816      3.67177886110055
  H           5.42582715910476      0.47256075887509      1.91068593033995
