23
Coordinates from ORCA-job NEB E -40.052876379290
  C           0.47375082231730     -0.08108809601450     -0.52486762134495
  C          -0.68625947205310      0.11302061986150     -1.32196424845212
  C           0.53625168892517     -1.34946642274282      0.29728104640388
  H           1.41615361564797      0.16841809566873     -1.01015395100708
  C          -0.59807586246164      0.89190740157030     -2.49697891895747
  C           0.16508291125363      1.31868044732782      0.66529840878143
  C          -1.08569937093126      1.01990542800530      1.23120020256929
  C          -2.20674428601175      0.96468146542774      0.32749751562650
  O          -1.86727922313932     -0.08283403803428     -0.75470291738674
  N           1.30972626911323      1.32213220990179      1.56873113827894
  H           0.25411441049140      2.15853300075607     -0.02071825928960
  H          -1.09960217238575      0.44290314412811      2.14411032408100
  H          -2.37727055464849      1.87682909764662     -0.24681689893600
  H          -3.13037903798533      0.59599818108726      0.76302101746587
  C           1.19871803544970     -2.44949444057883     -0.53006603792248
  H          -0.47800457461870     -1.65293837186809      0.56353256664496
  H           1.10550347044154     -1.21042668099291      1.21708362542302
  H           2.22219258939198     -2.18028742916919     -0.78171725526986
  H           0.64887730730609     -2.62034844447256     -1.45295265710144
  H           1.21822052815524     -3.37504382788904      0.03881885003547
  N          -0.51648313751525      1.47972946385299     -3.48140457992687
  O           1.28627432062558      0.57395775987457      2.51679562854644
  O           2.21093172263167      2.07523143665335      1.28897302173780
