23
Coordinates from ORCA-job NEB_product E -40.084487169740
  C           2.37179368639497      1.48189948358471      0.87497292086719
  C           1.32795567384455      2.08068474849103     -0.04494734253791
  C           2.24463907882912     -0.04964365434386      0.93219083734951
  H           3.34906106016647      1.72742196107572      0.42917724368610
  C           1.27349092438674      1.43278960335940     -1.34730620002845
  C           2.30368005294904      2.17472336339595      2.24861447801032
  C           1.28929198961772      1.59151386419509      3.18559904312485
  C           0.07995357856391      2.09705978496490      3.33824398097772
  O           0.61998630064341      3.01625549483709      0.22289037944577
  N           3.65906254119061      2.18438768777722      2.87202483671491
  H           2.06143408565925      3.23192981609068      2.06721742501643
  H           1.60445572144046      0.72164266763427      3.74361574473696
  H          -0.24598364806160      2.96832817176253      2.79442342815283
  H          -0.63710463677187      1.64926397128427      4.00340723888743
  C           3.41762413213523     -0.70493582588901      1.65249185947326
  H           2.20523860969139     -0.43012549968188     -0.09114564899778
  H           1.30625768692034     -0.31712428282241      1.42303377242883
  H           4.36198055016068     -0.39858806276972      1.20790773343456
  H           3.33806483985490     -1.78590233790556      1.57206851436166
  H           3.43623744336892     -0.45263173111184      2.70961220416508
  N           1.23769326387538      0.96576924830741     -2.39120319268729
  O           4.59433357789123      2.41181392237253      2.14214941916741
  O           3.72815348724916      1.99956760539146      4.05956132425061
