14
Coordinates from ORCA-job NEB_reactant E -30.362736140310
  C           1.35038758384758     -0.01995551189730     -0.37820013189546
  C           2.31779847762735      0.26206965865649     -1.24147606788775
  I          -0.09328314585819      1.42747179384032      0.06135170289089
  H           1.26432976709644     -0.95280005363095      0.14152417444478
  Cl          3.49123448190008     -0.96382040744736     -1.62152691710624
  C           1.38524864781429      0.52316281787791     -4.24982360656650
  C           2.62270722261334      0.97627935991454     -4.18717991935702
  C           3.21726095204087      1.62889742983912     -2.97670529018401
  O           2.44621540844814      1.46897279634882     -1.80078296213256
  F           0.91077186994218     -0.05430747666637     -5.36085246673051
  H           0.64396765925344      0.56102843643745     -3.46487080728723
  H           3.27478566385407      0.89337703225115     -5.04331205930219
  H           3.26772859236247      2.71330770550005     -3.12105755751398
  H           4.23614681905793      1.25331641897613     -2.81818809137222
