17
Coordinates from ORCA-job NEB_reactant E -42.157836536470
  C           1.69859147611015      0.05802713843160     -0.08500862662990
  C           1.04025614560731     -0.41206129853138      0.97790908800781
  C           2.12903178219359     -0.86575480983297     -1.17705961325194
  H           1.95837898670082      1.09318008487032     -0.20297699947514
  I           0.44599923328702      0.97516063004476      2.47257916169794
  C          -0.02147464775971     -4.54530794620647      2.83126653514205
  C          -0.26508224955479     -3.65428353164537      1.88900116423445
  C          -0.12123677853240     -2.18427943583355      2.10648059216268
  O           0.79196388773501     -1.69557726546439      1.13296223697441
  F          -0.17523068316155     -5.85284190278458      2.61665327054507
  H           0.29078951732636     -4.33403444547327      3.84488526456666
  H          -0.56249453650842     -3.96670107732923      0.89966566434834
  H           0.25757116503313     -1.97582494375024      3.11495240621285
  H          -1.09442660234922     -1.69017626764907      1.97722719945059
  F           3.06111988737197     -1.75258962640054     -0.78232494889339
  F           1.11507954411532     -1.59563817235714     -1.67677247255495
  F           2.65726387238540     -0.19189713008847     -2.20573992253751
