26
Coordinates from ORCA-job NEB_product E -44.126554259460
  C           2.90437354772457     -0.63998996527920     -0.32052397367137
  C           1.60372774857577     -1.19330081730010      0.19546525522539
  C           2.61216822223802      0.47405317075660     -1.32309397049389
  H           3.48315344743692     -0.25086056260588      0.52127737439491
  C           1.63918051303618     -1.70981512863530      1.66934565325568
  C           3.69305758196900     -1.81932613652273     -0.97822278944399
  C           3.07464700932571     -3.14708041284056     -0.62276330725776
  C           2.28421356899613     -3.83498001053176     -1.42586221561895
  O           0.55942488571687     -1.22401570032640     -0.38769054722156
  C           5.16814553209501     -1.82175885318423     -0.56328350488382
  H           3.62231497912786     -1.68970629606611     -2.06203977495610
  H           3.33860065487226     -3.54197443031610      0.34919993005263
  H           1.86147832617553     -4.78002538814246     -1.13266478943845
  H           2.01412848204449     -3.47359832336910     -2.40460610437354
  H           1.94152053484088      0.10888388707095     -2.09664528637610
  H           3.53140844031900      0.82087670290511     -1.78454460162293
  H           2.13212975754152      1.31359755197019     -0.82495314001341
  F           0.99269204395754     -2.86688310815887      1.81763792513494
  F           2.87664283369240     -1.88473117740437      2.15794049396078
  F           1.04470827920053     -0.80898888624160      2.46864401267728
  C           5.94254843662245     -0.60013810093094     -1.04129117749502
  H           5.62682092162804     -2.71945516661863     -0.98495584715558
  H           5.23476979245517     -1.89753399169328      0.52425864071207
  H           5.86655181336532     -0.49679986748388     -2.12160090082032
  H           6.99361634776194     -0.70451594828608     -0.78336892290062
  H           5.57247629928088      0.31016695923475     -0.57665843167028
