24
Coordinates from ORCA-job NEB E -52.875249428370
  C          -0.08465412660723      0.56128628884719     -0.94992601558384
  C           0.32110237920112      1.66630491937887     -0.15664743858462
  C           0.85067117292250     -0.13579100418858     -1.89112243600923
  H          -1.05964656601610      0.69965041047060     -1.40743296506545
  C           1.77912966044757      1.81331589092903      0.30070234285970
  C          -0.75160506606196     -0.68226593637771      0.46498226429023
  C          -1.68026022441344      0.17497001681398      1.10337228882952
  C          -1.26400253379615      1.27258546069142      1.82469444645556
  O          -0.55492754436157      2.32584777162190      0.45634255212813
  O          -1.26743253877086     -1.73597407142637     -0.20927233117477
  H           0.20335280100346     -0.86138317434073      0.95758506398429
  H          -2.69564081911063      0.12643038529477      0.73712602961713
  H          -0.33435803860523      1.23680767282870      2.37293264342188
  H          -2.00030384918881      1.95502825254313      2.21658690023241
  Cl          2.20391293132486     -0.97417362183178     -1.09900890663076
  Cl         -0.01676085388641     -1.30683651932846     -2.90401762288596
  Cl          1.57018408661859      1.08814084015749     -3.01129211064610
  F           1.95364669798326      3.00373236400870      0.90436780609994
  F           2.06641940030920      0.86872900906936      1.24608565533860
  H           2.52168756552300      1.72394357527736     -0.50390113285632
  C          -0.56359287244702     -2.96158628427820     -0.12350248342863
  H          -0.64710778184242     -3.37863748898454      0.88472206383762
  H           0.49129946813431     -2.84807491317191     -0.37881757047755
  H          -1.04111334836003     -3.63204984400425     -0.83455904375179
