24
Coordinates from ORCA-job NEB_product E -52.900276402380
  C           1.37617645902982     -1.01770195631065      1.36869418384890
  C           2.71456478062919     -0.53178372325667      1.93465046388418
  C           1.49927536351875     -1.07904480729619     -0.16039422089170
  H           0.64864556469468     -0.22446599635142      1.58079507955386
  C           3.71510566632248     -1.61528099402025      2.40248335420740
  C           0.85098078223673     -2.31438982273709      2.03903595110522
  C          -0.63405929808688     -2.49144306267926      1.81803542331680
  C          -1.55286564732881     -1.75054605222942      2.40746419074632
  O           2.98743228681622      0.62754177712977      2.01307003027242
  O           1.59816984661610     -3.41396797421835      1.57249412620023
  H           1.01517509200010     -2.18897647822960      3.12383994156888
  H          -0.90448508766989     -3.29228953856124      1.14648768112846
  H          -1.29572666215618     -0.95433729747197      3.08726706398367
  H          -2.60183423058150     -1.90754527746019      2.23069866832164
  Cl          2.79741706401572     -2.14943022184796     -0.70853601248352
  Cl         -0.01329077373688     -1.61174699673536     -0.90893837128532
  Cl          1.84944983743581      0.56252956417555     -0.77938167918810
  F           4.92933045592350     -1.06354714627241      2.57539490850881
  F           3.33460644725113     -2.09802580900703      3.61356633208157
  H           3.79698161504615     -2.46031435444368      1.70457289411185
  C           1.48317274846001     -4.56203051959181      2.38427667831926
  H           1.85319762373842     -4.36148965544692      3.39580547849668
  H           2.09659210154569     -5.32614379811633      1.91233457995135
  H           0.44808796427962     -4.91066985902153      2.44618325424113
