17
Coordinates from ORCA-job NEB E -42.872255475840
  C           0.99586207697705      0.54118897614513     -0.20237136658588
  C           0.00369657337605      1.46170547582581      0.16072928068481
  C           0.99245280943104      0.03904148108340     -1.63085473150838
  H           2.01371920057227      0.73854414964461      0.12018399238151
  Cl          0.40211558384755      2.52283039464611      1.50734806252472
  C           0.39484869501903     -0.99997226420566      0.86626349287084
  C          -0.94772983760473     -1.12155092007550      0.51920253440536
  C          -1.81132091063149     -0.03051090655990      0.79524271829130
  O          -1.22456685347945      1.25177153025917     -0.06903646478000
  F           1.22754709511105     -1.99219177800112      0.52568913135966
  H           0.69384117635712     -0.57316604992429      1.82174047041044
  H          -1.20679318543219     -1.81978603762834     -0.26192123320868
  H          -1.75886811723235      0.40155416159414      1.79088225588414
  H          -2.82088188091161     -0.10712881060889      0.41380722572083
  F           1.89893186539006     -0.92118820586301     -1.82945449385192
  F          -0.17799357793514     -0.43284468667384     -2.06172902444073
  F           1.32513928714574      1.04170349034218     -2.46572185015803
