17
Coordinates from ORCA-job NEB_reactant E -42.902489943120
  C           1.66152163912408      0.02979904799072     -0.10043917101074
  C           0.94156008205656     -0.36902624533395      0.95575072417766
  C           2.18142573490889     -0.95980289539888     -1.08773847362653
  H           1.89876132299128      1.06126154203526     -0.27971712279925
  Cl          0.35625534400849      0.81167964723331      2.07154500569249
  C          -0.02720675093410     -4.34471279491339      3.16025973548188
  C          -0.33725546696947     -3.51338501325116      2.18378568061114
  C          -0.14775991837486     -2.03562096028899      2.28086171083072
  O           0.66538353310170     -1.64109613934538      1.17729286320861
  F          -0.22740498782328     -5.66020233174036      3.05386978446534
  H           0.38092265194944     -4.07389826945138      4.12435431030376
  H          -0.72921098132782     -3.88631546401262      1.25002726319936
  H           0.33975301680414     -1.76183896648122      3.22340229665446
  H          -1.11809325505526     -1.52532556147403      2.21800420366364
  F           3.05172969967683     -1.83594459501602     -0.55268783028717
  F           1.21332881555571     -1.70416167292994     -1.65168054067603
  F           2.82658952030766     -0.35240932762196     -2.09199043988936
