23
Coordinates from ORCA-job NEB E -61.466177394310
  C           0.40464687424659     -0.42298852284009      0.56273916784044
  C          -1.09811191224731     -0.47794244128270      0.65224692558768
  C           0.92551663641120      0.77411112999662      1.38250229355234
  H           0.84634855360843     -1.30609909740571      1.03167188609254
  C          -1.68881282701652     -1.32881973999482      1.73097122997249
  C           0.63877617801367     -0.45087527615225     -0.96573014407082
  C          -0.54584771964821      0.19134096456589     -1.58139882316364
  C          -1.49901457701685      1.08858787552160     -0.90126820775412
  O          -1.83525198924167      0.63282913488936      0.37049859766615
  C           1.97655703635933      0.04625654749373     -1.56981730931713
  H           0.63478919996260     -1.51844329719598     -1.22547087248254
  H          -0.49945346840091      0.31635920707908     -2.65402506091177
  H          -2.44133717250720      1.13704045280617     -1.45971418165389
  H          -1.10716281423400      2.11745974530469     -0.86158954870727
  F           2.27226226339087      0.80070999958660      1.43002330218568
  F           0.53651628038108      1.96763576319975      0.88536968980464
  H           0.55782264171116      0.71326582658956      2.41963919390663
  F          -1.31602291982552     -0.95371345821301      2.98595293581727
  F          -3.01867250389500     -1.33657719805620      1.71962726001047
  F          -1.27609233091276     -2.60484770403661      1.61553392056912
  Cl          2.00724403223653     -0.42597896523200     -3.29504841453035
  Cl          2.17753695355821      1.80103626398274     -1.49686662282940
  Cl          3.34776358506627     -0.76034721060640     -0.77584721758453
