17
Coordinates from ORCA-job NEB_product E -29.770684239720
  C           3.32553285368975      0.91655033582411     -1.28415031385778
  C           1.86204636802525      0.65726583989081     -1.07478247730118
  F           4.00192657867272      0.45574141286736     -0.18373138837792
  H           3.69069251003952      0.34397265461477     -2.14761017890721
  Br          0.87517888662820      0.95559286497790     -2.74641892560712
  C           3.58907216498771      2.42784692331328     -1.48162561009336
  C           3.00483425495857      3.19081293604784     -0.32570539582067
  C           2.01742404995629      4.05727921854968     -0.44238798253207
  O           1.28028530967777      0.33778461085783     -0.10490948724643
  C           5.09320694443482      2.67193882360721     -1.59945619951497
  H           3.09706839479593      2.73065352236882     -2.41087303383870
  H           3.44792265660881      2.97390369391204      0.63656379219671
  H           1.56400210384274      4.27932731920659     -1.39531390311388
  H           1.62231940800126      4.58380022274959      0.40870257867098
  H           5.50043134272807      2.14933586319600     -2.46195208843475
  H           5.60509883775115      2.32495189559075     -0.70519643099080
  H           5.27855733520145      3.73644186242541     -1.71595295523085
