17
Coordinates from ORCA-job NEB_reactant E -29.748522069960
  C           1.89549744139330     -0.04302645107804     -0.36472945446862
  C           1.40386360905924      0.70607762628985     -1.34647610796350
  F           2.53106405211526      0.46182688536654      0.71729076516216
  H           1.83711016148083     -1.11761786710610     -0.35285331412930
  Br          0.54975405630092     -0.21864007243941     -2.76476029855904
  C           4.22699621825015      3.74639961434762     -1.71722935219621
  C           3.56189806128038      2.84540422962186     -1.01269959585204
  C           2.08889444503662      2.92427348199181     -0.75111694190116
  O           1.34562738546382      2.01675567358830     -1.57631753368759
  C           5.68699570362269      3.68778800732134     -2.00298701750119
  H           3.70538203768098      4.60504216283779     -2.12139410090917
  H           4.07111361442881      1.98224270268470     -0.60704838993578
  H           1.69704162736181      3.90340452697623     -1.03452288935409
  H           1.86602267892778      2.73427627335822      0.30401976544390
  H           6.13888716172200      2.80273631574253     -1.56304080299927
  H           6.18091426606960      4.57334853183960     -1.60453422343792
  H           5.85553747980580      3.67490835865716     -3.07930050771117
