21
Coordinates from ORCA-job NEB_product E -50.187155358280
  C           1.45483944818795     -1.59989729015531     -1.13147370380646
  C           2.80308097310077     -2.33001094170215     -0.97969669833000
  C           1.64848217226844     -0.27267946371257     -1.87193708241676
  H           1.12247530764190     -1.31684654002394     -0.12469514944065
  C           2.80912800959369     -3.12913758275557      0.23696238425282
  C           0.37715920398281     -2.58939771467114     -1.68287080335063
  C          -0.76461141420883     -1.92203978522939     -2.40166832412768
  C          -1.99779605475270     -1.90419083407831     -1.93356020070668
  O           3.72763860593430     -2.25359265649690     -1.73159541843599
  C           0.92206111246999     -3.70203982477036     -2.59306534428261
  H          -0.01853355448410     -3.12412028304252     -0.81072454669261
  H          -0.52401791536943     -1.49768754338443     -3.36487651706864
  H          -2.25375411499804     -2.33044269959925     -0.97753278440080
  H          -2.79979021442182     -1.44562511707721     -2.48391845736686
  Cl          2.03692745225832     -0.42186524463057     -3.58447783717480
  Cl          0.19285160092329      0.74389489711966     -1.68637903560206
  Cl          2.98367765374156      0.61208368739880     -1.05859389703195
  N           2.77870445761219     -3.73856868895677      1.20405115296186
  F           1.62484312880789     -3.25382224779296     -3.64616185194037
  F           1.75163592778622     -4.52683409643287     -1.90242833060079
  H           0.09549821392563     -4.32068003000626     -2.97905755443834
