20
Coordinates from ORCA-job NEB_product E -40.029521374850
  C           0.66222285576714     -0.46346529817371     -1.23194771910177
  C           1.63301176065778     -1.09699584154307     -0.25936739428579
  O           1.31817368553160      0.29814767486820     -2.19888194517054
  H          -0.06769415298131      0.13751117105145     -0.66110236418699
  N           0.95910492529438     -1.53099257447960      1.06244036763229
  C          -0.06475095574406     -1.61166283274330     -1.96034938931134
  C          -0.83481671543103     -2.50140149414401     -1.04734673519416
  C          -0.59551984550714     -3.79463746600439     -0.92596419777990
  O           2.78786998608246     -1.31631229656017     -0.38859604903040
  Br         -1.29272407606527     -0.77590812829431     -3.24854471323965
  H           0.66038166054026     -2.15978895875990     -2.56518071339122
  H          -1.62800422817098     -2.02123501196176     -0.48972793769081
  H           0.18579990648817     -4.28609921675329     -1.48266962611519
  H          -1.17017443390954     -4.41164592897508     -0.25842437305491
  C           1.81230460379581      1.53901632485008     -1.74264713711179
  H           2.19742703484281      2.04376188423122     -2.62510070134292
  H           2.61986740728132      1.40775413899447     -1.01601028489820
  H           1.01277281685695      2.13956607859982     -1.29544257503262
  O           1.44419524015953     -2.48598598185658      1.60306823016203
  O           0.00715252451112     -0.88352624234607      1.42689525814387
