20
Coordinates from ORCA-job NEB_reactant E -40.037032235500
  C           1.43248146637692      0.16612781689124     -0.00153708281655
  C           1.18035560331887     -1.15680341015687     -0.11487306333119
  O           1.21255973640236      1.02883393308326     -0.98457248183776
  H           1.84032440676929      0.52993586269429      0.93721938352014
  N           1.42868122328973     -1.99535160259718      1.02530888720708
  C          -0.98652725117170     -4.06225747472208     -3.03671530697733
  C          -0.75626003198675     -2.81091419183405     -2.68385201115127
  C          -0.47961652736786     -2.40771358863422     -1.27231621836577
  O           0.80164994507391     -1.76178433258201     -1.26446428105784
  Br         -1.35368750682739     -4.56138090109478     -4.81592103655967
  H          -1.00595014474028     -4.89179208393169     -2.34769730107052
  H          -0.72829967238375     -2.01473077605611     -3.41321315613595
  H          -0.47193278466542     -3.28014198697985     -0.61033510720383
  H          -1.24535024759836     -1.69483757575492     -0.93357772663740
  C           1.64202924423579      2.36057486013473     -0.76929197538022
  H           1.25763702787572      2.94233827068192     -1.60440236358625
  H           2.73361088424095      2.41800114767802     -0.75672849063149
  H           1.24743008359485      2.75680886568862      0.16979920690983
  O           1.28695919584167     -3.19294425656457      0.88185570099572
  O           1.74970534972145     -1.45456857594374      2.06881442411030
