21
Coordinates from ORCA-job NEB_reactant E -35.832451538310
  C           2.00733527574925     -0.42196691101496     -0.09670212757027
  C           1.39132480196839     -1.43650760145159     -0.70643094752032
  N           2.63193579306623      0.72122693095137     -0.62727877570723
  H           1.95315930884454     -0.41941619397379      0.98204884954771
  C           0.72822025366357     -2.53463478482801      0.07488336737306
  C           3.97349610342011     -1.69692353416315     -2.76209405692441
  C           3.13933860621075     -0.78853392041558     -3.26278209108282
  C           1.66648635069879     -0.77408201236000     -3.01350795789117
  O           1.23226199370111     -1.69978241037872     -2.06025822556990
  N           5.37485758328130     -1.64654023636755     -3.03070011784484
  H           3.67191100265938     -2.52530389905459     -2.14005662533823
  H           3.52968212045964     -0.00485983161996     -3.90094740549020
  H           1.15916386315438     -1.05500119003015     -3.94657474993892
  H           1.34588759419050      0.24456013227880     -2.75575688752593
  H           3.18343598572011      0.56386388102191     -1.46066266652128
  H           3.18386378189457      1.20064843183004      0.06963751871456
  H           1.20348206910812     -3.48898265732335     -0.14719722052953
  H          -0.31732064903892     -2.61203282744905     -0.21740442564253
  H           0.79000657036576     -2.34647034007559      1.14093579015896
  O           5.80856651383794     -0.69596064139280     -3.65072091450156
  O           6.04480507704446     -2.56690038418326     -2.61133033019515
