25
Coordinates from ORCA-job NEB_reactant E -47.194280051580
  C           2.28064180254659     -0.09978038068582     -0.90450211237614
  C           1.39544589686456     -1.09591193358825     -1.14052965088976
  N           2.41808071583195      1.13226729218649     -1.56543744670541
  H           3.01023578855226     -0.23445483853999     -0.12088104323307
  C           1.36067712073533     -2.27165599925250     -0.19804801552353
  C           2.69991926278259      0.42404276427169     -4.46572732923718
  C           2.09188046766941     -0.61086606088798     -3.91143523408768
  C           0.68996450817779     -0.57294649951968     -3.38408732566040
  O           0.56692233756202     -1.28834574522689     -2.16026252084074
  C           4.11785398274839      0.39418263186999     -4.94321747409262
  H           2.21313706059195      1.38011130598698     -4.59180295950212
  H           2.60874185145705     -1.55472573100500     -3.79180408166841
  H           0.01414830010164     -1.10112063640543     -4.06474232707113
  H           0.35214713054922      0.46387460551290     -3.26579921323927
  O           3.53788782177660      1.61199388672919     -1.62484487123952
  O           1.41961994576883      1.68420394844930     -2.00453685541736
  C           2.29814892088757     -3.37511501175415     -0.69437884001081
  H           0.33956368765173     -2.65319537303407     -0.17355617080102
  H           1.64941190269982     -1.95863837246600      0.80386960396097
  H           1.99996463744579     -3.70848934259686     -1.68498725779296
  H           2.25968142631617     -4.22504045780662     -0.01892919831676
  H           3.32271412462618     -3.01427843192925     -0.74073860091521
  F           4.65116456444265     -0.85077562157536     -4.88779888625644
  F           4.20338166106672      0.78495093694168     -6.24083466202493
  H           4.76216508114720      1.06521306432563     -4.34898752705850
