25
Coordinates from ORCA-job NEB_product E -47.192961944370
  C           2.63831302519832     -0.66501282745672     -2.16196399979258
  C           1.41763060470161     -1.53152276336079     -1.75611671546764
  N           2.81222781760700      0.38338957185260     -1.12508812435372
  H           3.52425737898101     -1.30835042063065     -2.09286059396425
  C           1.60448325684405     -2.29197214220571     -0.47423020773737
  C           2.50088413198456     -0.11311941913588     -3.59561985246183
  C           1.68011646360486      1.14516537933844     -3.72922948076586
  C           0.39927894930663      1.13827332337282     -4.04484847916142
  O           0.45670771097795     -1.62185114762944     -2.46459462686052
  C           3.89824024287636      0.12306743354032     -4.17188699483829
  H           2.03027334204105     -0.90699870044847     -4.18703100283287
  H           2.21044296150828      2.07168572783453     -3.56360462619624
  H          -0.14306893704780      0.22021062176820     -4.19605144715280
  H          -0.15813102169374      2.05334789049493     -4.13463435925224
  O           3.60392991247557      0.12948582554167     -0.24931265280376
  O           2.12499514897946      1.36804933789683     -1.18507159041056
  C           2.22805343869376     -3.65645177866157     -0.79852389036061
  H           0.62561535090469     -2.44803863560653     -0.01897898508068
  H           2.25006556726826     -1.75631621455156      0.22159980077755
  H           1.60997154926926     -4.19545900730382     -1.51222771482484
  H           2.30346929499247     -4.24540191751260      0.11100057130818
  H           3.22571172881046     -3.54143730905477     -1.21519385254280
  F           4.62604861657714      0.93085029796705     -3.36607910863161
  F           4.58656111061397     -1.04511736668201     -4.24897511242453
  H           3.87762235452481      0.57042424063312     -5.17597695416870
