22
Coordinates from ORCA-job NEB E -45.372799900210
  C          -0.34165308365209      0.31283261265039     -1.34336616934611
  C           0.32830045936022      0.85590007410204     -0.30822124648030
  C           0.34676813693557     -0.36027049039047     -2.45713505599654
  H          -1.41530800681548      0.32542011778165     -1.35762644089507
  O           1.67255695107575      0.88214906706934     -0.32939117294672
  C          -1.10193911852350     -1.64999565377609      0.84840859407160
  C          -1.79736832946605     -0.52810843040534      1.01616670290792
  C          -1.19996493777573      0.71060255063721      1.58975926077372
  O          -0.25418839811184      1.43240636933757      0.75443238517973
  O          -1.65153770829588     -2.75929059930577      0.31122909367827
  H          -0.06040506720880     -1.71354790633932      1.14729888756769
  H          -2.82474983742258     -0.49463150590783      0.69155708640972
  H          -0.65109033227034      0.47770868862731      2.51151788040997
  H          -1.97547702084109      1.44347763035925      1.81903059471620
  Cl         -0.81970581838899     -0.97267919177360     -3.63593280062263
  Cl          1.49192384930691      0.71666388031499     -3.31324752238011
  Cl          1.30507530442543     -1.75933090375749     -1.86369765189585
  C           2.34186649450150      1.50990587119333      0.74908939082750
  H           3.40071868589311      1.43664226497410      0.51151439899670
  H           2.13645039822353      0.99936188200597      1.69328165517105
  H           2.04750683504847      2.55758334388551      0.83584426253263
  H          -0.97777945599812     -3.42279967128274      0.12948786732063
