22
Coordinates from ORCA-job NEB_product E -45.395062106540
  C           1.13336417407961     -0.71239425927190      1.30395695196731
  C           2.40778407281630     -0.51604932800989      2.13892704603595
  C           1.40200468347143     -1.02959764233564     -0.15807344128425
  H           0.57273051999592      0.22695418406019      1.34324111172133
  O           3.44900037420576     -1.16264618768981      1.65106356159244
  C           0.31958566441527     -1.78130947443464      2.09104365334019
  C          -0.90835470137420     -2.25341261963466      1.36614432952312
  C          -2.11950286038885     -1.78640434235007      1.60308497608336
  O           2.40814765485994      0.14066216974331      3.14366405328156
  O           1.20011858146480     -2.84313132249858      2.38926665431881
  H           0.01999117057651     -1.28061513219620      3.02774059877733
  H          -0.73865621423855     -3.04253685613648      0.64694334839252
  H          -2.29436177070972     -1.00436072048058      2.32358532127561
  H          -2.98082321171834     -2.15563844794677      1.07505032780405
  Cl          2.02200938074548     -2.65220126335637     -0.43364592281791
  Cl         -0.09477987939315     -0.82676730524356     -1.11118146652409
  Cl          2.57305880795048      0.15069685944467     -0.80914557887493
  C           4.64900577168361     -1.09897008302418      2.41266071506531
  H           5.43265435664894     -1.50191639500919      1.77655026349018
  H           4.54409546837588     -1.69885552193165      3.31808010605999
  H           4.86541159458980     -0.06588886067150      2.69069601202816
  H           0.68751636194306     -3.59591745102651      2.70354737874395
