22
Coordinates from ORCA-job NEB_reactant E -45.384102080390
  C           1.25281023829049     -0.43097594953181     -0.15532870676186
  C           1.97931971019617     -0.94128133503584      0.86035241045837
  C           1.87846195358685      0.36249269283883     -1.22663489209595
  H           0.19309752757075     -0.58400881822606     -0.22269202851206
  O           3.29839839649144     -0.72909567423573      0.90793505316961
  C          -0.80937613789101     -2.33707901150235      4.21531534887613
  C          -0.13663451587675     -2.77962975030924      3.16057174968984
  C           0.10719587931226     -1.95511002117333      1.93929703273341
  O           1.50444285689968     -1.67413167036324      1.87809176266402
  O          -1.05843405672656     -3.02688510153648      5.34252106024643
  H          -1.25189528925999     -1.35160045338487      4.25098247105271
  H           0.30322974355563     -3.76725287769636      3.15964634884886
  H          -0.45495538814370     -1.01614756609051      1.98838625348371
  H          -0.18525283877030     -2.50575961069659      1.03575470444527
  Cl          3.12821384848674     -0.57012478265287     -2.11487943231825
  Cl          0.66078671499112      0.88426141461254     -2.39853635791918
  Cl          2.69216534019669      1.83052384861473     -0.59227802686665
  C           4.02264121184815     -1.27892258438892      1.99406783993245
  H           5.05431146743700     -0.97489370737509      1.83283722705364
  H           3.94926748958951     -2.36852190190421      2.00228187073015
  H           3.65908180722193     -0.88719927960032      2.94640607813971
  H          -0.65187595900611     -3.90245786036228      5.29770223294964
