24
Coordinates from ORCA-job NEB_product E -41.236009813700
  C           2.42927340558479     -1.55759748880886      1.32062747909971
  C           1.97327458361835     -0.26013315807021      1.98722604457240
  C           2.07772332616307     -1.47717444185474     -0.17220649403701
  H           3.52683159305622     -1.55128654829567      1.36945536439050
  C           2.39262029234923      0.93116353028983      1.26198169119202
  C           1.89010138096993     -2.79033697104955      2.09140407901158
  C           0.77662037218023     -3.50202187837884      1.37560195954562
  C          -0.47204180370304     -3.49404161380918      1.80081864053256
  O           1.37334145648144     -0.18817483336204      3.02302612892246
  C           3.02262645362576     -3.75762519616220      2.48128240196746
  H           1.47270267964253     -2.40127738326474      3.02867170570990
  H           1.04418545324616     -4.04728058771077      0.48287210032605
  H          -0.76906274276139     -2.95330461850138      2.68493618962175
  H          -1.25186148017627     -4.02082248465521      1.27891906619804
  F           2.47668815945906     -2.57741688228395     -0.84371150308259
  F           0.74492350530063     -1.36402565959466     -0.36810112574294
  H           2.55369240375487     -0.60962272375178     -0.66117447975359
  N           2.74247352922635      1.87211612454773      0.71272206261488
  C           3.77312244229089     -4.39389600594623      1.31719922003777
  H           2.57770204250014     -4.54880379722302      3.08819516089430
  H           3.73262842731702     -3.21931913538879      3.11578099758832
  H           3.10545933170819     -4.97944138437847      0.69253617736663
  H           4.54335181012041     -5.05811679979056      1.70247636123271
  H           4.25642337804541     -3.64836006255670      0.69036077179145
