22
Coordinates from ORCA-job NEB E -52.773592539060
  C          -0.10497681114414     -0.61113314781501     -0.75033182012884
  C          -0.02731777115177      0.66472402699520     -1.39772261744843
  C           0.91646061135644     -1.64724578366173     -1.10393005554502
  H          -1.10803545001323     -1.02170497446893     -0.73564258206468
  N           1.14949336038113      1.16076309225756     -1.86144252738693
  C          -0.10633781109039      0.03061436419089      1.13179360494028
  C          -1.16290808147218      0.95899884349921      1.14225646684732
  C          -1.06612392486800      2.10127902417957      0.33772592038462
  O          -1.00734779141950      1.47454029692145     -1.27505138407521
  C          -0.26252112703575     -1.11773140025524      2.09898332494308
  H           0.90611857091807      0.42215756143262      1.12635390648345
  H          -2.14571377189927      0.59858763558588      1.40543596080362
  H          -0.11786821294880      2.62568156455333      0.31405496559552
  H          -1.92843084521841      2.74795807692956      0.27009850908342
  Cl          0.45973579074390     -3.26759569690531     -0.56106732642494
  Cl          1.06423611098165     -1.76387366694501     -2.91818803996470
  Cl          2.54482420783168     -1.26275452318652     -0.49448388554844
  H           1.10757477430086      2.05246585214673     -2.32732586997743
  H           1.91435596371297      0.55006180361616     -2.09154800170186
  Cl         -0.58556538838125     -0.43185678178875      3.73250116718443
  Cl         -1.63668735806679     -2.16092573152221      1.69006863530370
  Cl          1.19703495448278     -2.10301043575944      2.26746164869705
