22
Coordinates from ORCA-job NEB_product E -52.823243450220
  C           1.72230703675914     -0.10920671562535      2.12670353163825
  C           3.18000121269399      0.33655727412609      2.44599085004549
  C           1.54567842724941     -1.39948714286736      1.33885376740738
  H           1.36100632987294      0.68143787936971      1.45342320835627
  N           4.19552217510627     -0.39697595979347      1.97648506280216
  C           0.87835602097040      0.11208489798070      3.41549975536414
  C          -0.58018200354429      0.36763696714817      3.12621503292347
  C          -1.01578806300437      1.50763079799996      2.62405836264391
  O           3.34223222070254      1.36926978153705      3.05346518881687
  C           1.03255384669151     -0.90968619825283      4.53957789288032
  H           1.31006414033527      1.04511578436607      3.81035478001246
  H          -1.26879656918218     -0.42892143745906      3.36082558539448
  H          -0.34831757089409      2.32239165908152      2.39443769610871
  H          -2.05919184224195      1.67099691918005      2.42230996312373
  Cl          2.31731299707754     -2.83571764082264      2.04493737931969
  Cl         -0.17476442586627     -1.76722173214640      1.07318978238488
  Cl          2.26575102063825     -1.15851922024923     -0.29512025886811
  H           5.12524751088184     -0.07709590408687      2.19699957016600
  H           4.08942302730687     -1.28762791091727      1.52442832253999
  Cl          0.34480111683226     -0.17679619434010      6.02179422378478
  Cl          0.16005276607018     -2.43147991302498      4.26820357760617
  Cl          2.73723062554474     -1.28108599120378      4.86396672554897
