22
Coordinates from ORCA-job NEB_reactant E -52.808271333020
  C           1.36164252351877     -0.42283330754026      0.32231227946553
  C           2.13414828516335     -0.25793774885308      1.42304601501431
  C           1.91376395913121     -0.70131456489934     -1.00547073448124
  H           0.29202710776422     -0.35457304824911      0.37639385789317
  N           3.48824294242947     -0.36239604168098      1.43437149065011
  C           0.90464648232734      0.27267528200948      5.28517522552545
  C          -0.02260009248787      0.14025922654707      4.35015165005981
  C           0.27068248193171     -0.03788399948260      2.89584719250400
  O           1.66322164901946     -0.01425131972620      2.66787903984146
  C           0.65063577735036      0.45072061335521      6.73608124100669
  H           1.95232376185895      0.25547741859429      5.02411815074903
  H          -1.07495585215391      0.15369136162252      4.59314980184504
  H          -0.22207250899845      0.76870495281719      2.33316699092062
  H          -0.15391437907594     -0.99515094115696      2.56042611612154
  Cl          2.87122744400012     -2.23230890105989     -1.05535641210572
  Cl          0.63212766723622     -0.82879557259400     -2.21218606234971
  Cl          3.05309667529942      0.60011740034586     -1.57050604169999
  H           3.94726302737527     -0.04894796929706      2.27272577464394
  H           3.98197444870781     -0.24446900735458      0.56567038567530
  Cl          1.39467543410086      1.98443452504693      7.28038017013169
  Cl         -1.06420554110622      0.48771154938408      7.16529037220475
  Cl          1.42284870660784     -0.88852990782857      7.63783349638422
