21
Coordinates from ORCA-job NEB E -39.871716079930
  C          -1.21366955521483     -1.11348608752270     -0.05638962191537
  C           0.78457728429638      1.71225071870705      2.13193285378687
  C          -1.55530663313478     -1.31121867168760      1.40514208491919
  H          -2.09199364502342     -0.79842874721626     -0.62608971862392
  O           1.83614567815174      1.74596205255048      1.28701973316692
  C           0.33544628173247     -0.13343067221891     -1.74044673262926
  C          -0.05518534233770     -0.14412235790281     -0.29414667442479
  C          -0.43917233181352      1.28962475470911      0.12164352088601
  O          -0.33264694756585      1.47960010847498      1.54040896355028
  C           1.57628914215054     -0.20780087268774     -2.20076186426707
  H          -0.47213046416041     -0.04970137726521     -2.45626840824489
  H           0.80041641519170     -0.45756336496474      0.31446360307707
  H          -1.47811157327678      1.50899665672998     -0.13412564049611
  H           0.22263353736755      2.00467214290442     -0.37672915566613
  H          -0.69985886898755     -1.70750743136267      1.94957591043376
  H          -2.38333328823798     -2.00967459448693      1.50845344048582
  H          -1.83898537698876     -0.36340207493260      1.85746754746969
  H           2.64715900308518      1.92862038274145      1.77560623303614
  Br          3.11175595018179     -0.34744366136589     -1.10885908149629
  Br         -0.71988418738996     -2.86909498271263     -0.84224832730168
  Br          1.96585492197416     -0.15685192049077     -4.05564866574623
