21
Coordinates from ORCA-job NEB_reactant E -39.897806626440
  C           1.21574970069745     -0.10179761078635      0.10789367232354
  C           2.24684104628275      0.45603461521641     -0.52032682790901
  C          -0.21431713404709      0.16690531583766     -0.23207962694568
  H           1.41013651952688     -0.78358766072009      0.92239115619476
  O           3.55834235677492      0.20704711022503     -0.21134125881273
  C           4.06478872443484      0.89974046164576     -4.43861915914220
  C           3.69152860943462      0.67903037090958     -3.18846697948201
  C           3.19679324571941      1.75259599878437     -2.26892118380364
  O           2.06438004127238      1.34790264024147     -1.53198745351095
  C           4.59256573145786     -0.10893026429927     -5.38011293395921
  H           4.01824989053471      1.89483612403090     -4.86553479966213
  H           3.73016128868903     -0.30972356411196     -2.75161118359246
  H           2.87395291861203      2.63374718366716     -2.82835636067309
  H           4.01456356984171      2.03548724475012     -1.59105071301696
  H          -0.27563435590247      0.82918370595989     -1.08959982530548
  H          -0.72615874117139      0.63227674987574      0.61013673212691
  H          -0.73068296939634     -0.76458358331770     -0.46213043464253
  H           3.59890840857788     -0.39147133473107      0.54109889749060
  Br          3.48582747793525     -0.13153439893832     -7.01461418045420
  Br          6.43052178088849      0.39364319000221     -5.91416926443937
  Br          4.65818188983708     -1.91720229424154     -4.68889827278414
