21
Coordinates from ORCA-job NEB_product E -39.920123350070
  C           2.85810555496382     -0.20529759086265     -1.44662341305334
  C           1.46967574051233     -0.85251817502008     -1.36359060532736
  C           3.03374801884607      0.77486040539433     -0.28164569559243
  H           3.58793992555154     -1.01838041847535     -1.32676226816942
  O           1.30281026260256     -1.66290298666276     -0.30933150816418
  C           3.03833567078467      0.38914094685733     -2.85935287706288
  C           2.01236243249044      1.43586883653275     -3.20257474728943
  C           1.39759299015568      1.49212880376813     -4.36891754121137
  O           0.59061808464857     -0.67899919879149     -2.15274026210712
  C           4.42752852642295      0.96694358799176     -3.13234947818503
  H           2.91475183686634     -0.44869568046600     -3.56003540807156
  H           1.81973216382310      2.18245954772451     -2.44647121197540
  H           1.55942249296596      0.75940930506405     -5.14195490286698
  H           0.68742851342942      2.26921899439051     -4.58875528627715
  H           2.44827546586292      1.67801156138851     -0.43005953694592
  H           4.07836548990994      1.04998082305629     -0.15757426637959
  H           2.70446005148886      0.32132951352852      0.65217955736021
  H           2.09266692567260     -1.74743901692939      0.24211864136726
  Br          4.69047899027032      1.15659249875201     -5.06579736863606
  Br          4.71040646781304      2.73841759827293     -2.36708837965148
  Br          5.87019439491886     -0.19202935551391     -2.48497344176080
