21
Coordinates from ORCA-job NEB E -50.081692824560
  C           0.29304635745030      0.58070496251771      0.54492239304363
  C           0.10633888994581     -0.63361640285835      1.19666459301738
  C           1.18536881394578      1.70152060038783      0.82857224773567
  H           0.49906827677016      0.41162721810773     -0.66879026747767
  C          -0.02177316911208     -0.54257710230806      2.75669160794138
  C           0.19105702705986     -0.33790603714264     -1.65025511312928
  C          -1.23020512149587     -0.17611906802413     -1.99206826781574
  C          -2.15974998180360     -0.96997508078683     -1.46872732970124
  O          -0.13745080372685     -1.72677850323926      0.70752997814097
  C           1.09370535489812      0.02652827737628     -2.68685968716613
  H           0.40106591233008     -1.32412562035587     -1.22526923106009
  H          -1.48132046212091      0.61533382514106     -2.68570602227171
  H          -1.90540656750657     -1.72326881907888     -0.73875206242249
  H          -3.19693367896505     -0.88383892699358     -1.74079724642298
  Cl          1.15348138459493      2.87370774832860     -0.52292812924043
  Cl          0.68869665216956      2.57927576286243      2.29690565572422
  Cl          2.94158827724142      1.21369850006375      1.05739502899604
  F          -1.11930535351694     -1.22827247695065      3.12466980664984
  F           1.04388162303919     -1.16362234004028      3.29853051454359
  H          -0.09186136884366      0.46924054155043      3.17157862722251
  N           1.74670793764626      0.23846294144272     -3.60330709630748
