21
Coordinates from ORCA-job NEB_product E -50.195689997240
  C           1.71788512783673     -0.20212219214945     -1.35489693452497
  C           0.81221995896316     -1.06578359120333     -0.46817921311478
  C           3.10307765735922      0.01205482057749     -0.74430711741784
  H           1.22994231399823      0.78157202377125     -1.38105268544480
  C           1.28475644110964     -2.48900002229880     -0.09956351487892
  C           1.73973771067101     -0.77297168269064     -2.79321237728968
  C           0.33758183926710     -1.17169486648969     -3.20070548677917
  C           0.02175093978737     -2.37882841003310     -3.62629346397745
  O          -0.22909077804343     -0.65648391630977     -0.05178151031483
  C           2.20314301266691      0.22078833192572     -3.74026272342243
  H           2.40542853255472     -1.63959653722194     -2.85313806929932
  H          -0.40080069842431     -0.38487780475690     -3.13224758226365
  H           0.75039113695734     -3.16907375777297     -3.69966817955435
  H          -0.98636012186525     -2.62627086252862     -3.90892961180521
  Cl          3.89664697220563      1.41875409268012     -1.49611495269753
  Cl          2.90144813919408      0.34484240167361      1.00681457587300
  Cl          4.18199233010758     -1.38810299039729     -0.91805309221597
  F           0.23857969422823     -3.20370840150939      0.35077574411252
  F           1.79018103102977     -3.16720986289229     -1.15279096981998
  H           2.05186043574100     -2.45824564057562      0.69307067253629
  N           2.51662832465526      0.98305886820161     -4.53056350770094
