17
Coordinates from ORCA-job NEB_reactant E -40.941354589240
  C           1.76978360361727     -0.14039744002858     -0.15705817238718
  C           1.64934226913598     -1.13226449175201     -1.03893559500261
  Br          2.06641727173493      1.69261969839747     -0.49550028455429
  H           1.67343924532470     -0.33661364886991      0.89602169247885
  C           1.38917998378517     -2.54964732070462     -0.56411446834752
  C           3.69839943230761     -0.52707750427645     -5.13368016236345
  C           2.54058362226319     -0.62388336238453     -4.51100622790247
  C           2.31718905967654     -0.10310011080889     -3.12429615914413
  O           1.74008092064602     -1.17137565286010     -2.38026690632467
  I           4.00818270940461     -1.22380378023202     -7.08712643105112
  H           4.56967832051327     -0.06339291841803     -4.70205821435497
  H           1.68462781413707     -1.10138232735303     -4.96368936569363
  H           1.62383486849253      0.74710339709248     -3.16325725774702
  H           3.26165394219705      0.21693171631515     -2.67256414226905
  Cl          2.86697933899855     -3.50679247672538     -0.87306641318119
  Cl          0.98454529827580     -2.68606442642994      1.14578803263849
  Cl          0.05438229948974     -3.24455935096161     -1.51018992479405
