17
Coordinates from ORCA-job NEB_product E -40.952691872220
  C           2.63871751474548     -0.96292537154029     -1.76321109798303
  C           1.45630608404299     -1.89804629384323     -1.79346959783684
  Br          1.96503590587119      0.54935054223005     -0.68803003604842
  H           3.46539626460947     -1.38957962134566     -1.19268152040955
  C           1.46165281430226     -2.97129628531310     -0.69143873402168
  C           3.10608612563478     -0.43167102743330     -3.10534205545426
  C           2.09339554692581      0.32999467039791     -3.88258749979732
  C           2.31960838376102      1.55194953487443     -4.33161775424847
  O           0.57520332342385     -1.86537916111838     -2.59838659917000
  I           3.79525093387974     -2.15635464422620     -4.26546580825830
  H           4.00084643337926      0.17608710382442     -2.95167130981201
  H           1.15566597773793     -0.17209555192709     -4.06779677800777
  H           1.57291352771429      2.09197181949193     -4.88587931101429
  H           3.25271431097751      2.06349452567326     -4.15705334378248
  Cl          2.60241156868616     -4.19933980223009     -1.32638361331988
  Cl          2.03947708932043     -2.40054817888392      0.87983386114213
  Cl         -0.14458180501217     -3.68051225863075     -0.51781880197782
