20
Coordinates from ORCA-job NEB_reactant E -37.133346959270
  C           0.46527379743364      0.92588249901827      0.19888041263722
  C           1.68861831428821      1.36926487314605      0.49593998080765
  Br         -0.66901261523581      0.22374829495135      1.52628925352045
  H           0.05316855110888      0.94132494878250     -0.79279498664551
  C           2.53422549456905      1.95829083265242     -0.60861307269409
  C           2.31187533148641      4.13515007835514      1.85145831085079
  C           3.36673268385497      3.36762119859202      2.06495224277596
  C           3.32481666512694      1.87237483358908      2.19764131148068
  O           2.11810545944696      1.27182322972280      1.77849834697885
  C           2.36566811665099      5.61850093034656      1.69803960978656
  H           1.31654957112005      3.72513002081380      1.75531224623740
  H           4.35070615703342      3.80234289956949      2.16895114746351
  H           3.39710589342014      1.59606300452934      3.25597228367665
  H           4.18508736543977      1.42154974404491      1.68100327286364
  F           1.98838064752482      3.14918954179491     -1.03485488061905
  H           2.54770003829702      1.29581080785753     -1.48054154012005
  H           3.55390668203298      2.18235357962534     -0.29037636958152
  F           3.63534137916505      6.11011924045144      1.86724990966966
  H           1.73027127290686      6.11211581966853      2.44335316635508
  H           2.04087919432963      5.91074362248850      0.69153935455610
