22
Coordinates from ORCA-job NEB E -58.898532008550
  C           0.36660185693330      0.10120149267425     -0.97610663544199
  C          -0.93168225177606      0.65594556831687     -0.83529534421957
  N           0.41714699379548     -0.99912231345233     -1.97187857576478
  H           1.15243034666187      0.81693389308805     -1.21859472208047
  C          -1.07064242025854      2.16687825347599     -0.62266679370572
  C           0.70683823463107     -0.79093509627913      0.63016459986850
  C          -0.46322634162137     -0.71565708888131      1.41197173137666
  C          -1.65591613433008     -1.14153799500557      0.75396905925500
  O          -1.91590775648641     -0.04656111421489     -0.39147601052719
  C           1.98887334492336     -0.25535901994087      1.21284233456737
  H           0.85598692651910     -1.77798191386804      0.18525133099409
  H          -0.54368386249099      0.05784421668551      2.16607838762877
  H          -2.57614412523541     -1.06988930880360      1.32217702740492
  H          -1.57948639658258     -2.06284067913269      0.18061343392950
  O           1.00799354315417     -0.72410062304261     -2.97893188256070
  O          -0.15587993565031     -2.02846085564876     -1.72760282079552
  F          -2.12735289260961      2.66101621656240     -1.26505983243620
  F          -1.23747411437164      2.44439049827302      0.68183760515543
  F           0.00543509326814      2.84025684995293     -1.03641060463087
  Br          3.47459542545305     -0.45979062302387     -0.05422451886602
  Br          1.84676810813906      1.62734108781385      1.71676705383440
  Br          2.43472635793441     -1.29957144554920      2.81657517701438
