22
Coordinates from ORCA-job NEB_product E -58.934994966350
  C           2.83772747294932     -0.31454861706836      1.93366951586161
  C           1.55148472806948      0.28496293447985      2.46920122122125
  N           2.51318016680227     -0.93076468115815      0.57953821302209
  H           3.59747307402694      0.45394876683776      1.74893628701010
  C           1.59914572257404      1.84024982830378      2.56834856924229
  C           3.42532948687609     -1.46745953701976      2.78532322987477
  C           2.41899176093632     -2.55459539446718      3.04570230083197
  C           2.60857065149785     -3.80534094241555      2.66606908201923
  O           0.53210839905814     -0.31032863715336      2.64652820405737
  C           4.00704669014862     -0.94213332179290      4.10004417150892
  H           4.27157145145611     -1.88987624060380      2.22237801026376
  H           1.52021958361932     -2.26269336571339      3.56801388863437
  H           1.87504586000569     -4.56366545404027      2.87003087048220
  H           3.49469357359737     -4.12171587341316      2.13976578033713
  O           3.21051163680253     -0.56451465386853     -0.32284955597759
  O           1.62399076382727     -1.72674580655279      0.54549977640886
  F           0.61081207960337      2.32445113994318      3.30193296552724
  F           2.75495264924613      2.28729981403264      3.07581028064575
  F           1.49863465195319      2.34990468356235      1.33132852770266
  Br          4.74063550076964     -2.43080089484607      5.11894423572670
  Br          5.47237962114741      0.32228465161821      3.77379125068476
  Br          2.65299447503288     -0.05421839866451      5.19979317491456
