22
Coordinates from ORCA-job NEB_reactant E -58.940852822000
  C           1.46069851051678     -0.09855560443967      0.07132697124436
  C           1.35774702212673      0.17534906053252      1.38415735373541
  N           2.18024648705023     -1.16413340520070     -0.54981767516622
  H           0.95422887220763      0.53495320895371     -0.64238445433566
  C           0.42954035162656      1.32432571383519      1.80232853414662
  C           4.19405541831583     -2.35276082797757      4.27807894004317
  C           3.60699525618685     -1.25725190944593      3.82320917813956
  C           3.10131595266316     -1.12776908989387      2.42377415621197
  O           1.95675299362652     -0.28204671709995      2.46990492906315
  C           4.75486406310113     -2.54178881622326      5.63345872137154
  H           4.31974454180889     -3.21984189133518      3.64001578551400
  H           3.46118132505043     -0.38213273554688      4.44142178518670
  H           2.85172354177736     -2.10386238351312      1.98965211262950
  H           3.87046355517407     -0.65721711718542      1.79324247230290
  O           2.63160564848441     -0.94285024774176     -1.64822592885182
  O           2.25833544399509     -2.22550467834864      0.03840421794590
  F          -0.32065222660912      0.98351162850109      2.84662997603685
  F           1.14402990469015      2.39901185196701      2.15557016527412
  F          -0.39315063757000      1.70490289568165      0.82467770499762
  Br          3.90190594709444     -4.10654232164246      6.47353605308591
  Br          6.68913213150622     -2.91440576933480      5.47860359627284
  Br          4.53603589717662     -1.02879084454195      6.82533540515157
