23
Coordinates from ORCA-job NEB E -40.280625559240
  C           0.08132106093597      1.27094935144693     -0.81614457168523
  C          -1.19983525801741      1.79971182448596     -0.67559895721758
  C           0.33315146328317      0.33527657747931     -1.98013498387645
  H           0.91633247488753      1.95455485445103     -0.69899102018249
  Br         -1.27849142312437      3.50244311594364      0.32026239745161
  C           0.12910700063775      0.17779373908862      0.87208506231191
  C          -1.04481292827755     -0.55959901680473      0.73421050278641
  C          -2.28982305584047      0.11567402008848      0.71916055678520
  O          -2.24442432314977      1.09573494912805     -0.64243275780245
  C           1.48707927323248     -0.47655156442011      0.98031972988172
  H           0.06372968457575      1.06887984887746      1.49299211292406
  H          -1.00405352425762     -1.54529334334883      0.29968924662970
  H          -2.44656618482628      0.89270834738113      1.46315179016310
  H          -3.17411119353571     -0.47610519453576      0.52486976728409
  F           1.63238258332811     -0.04719109455561     -2.01331076011788
  F          -0.39540284661011     -0.79868381916008     -1.96168254485921
  H           0.12414618748707      0.83954171408475     -2.94044239844078
  C           1.55562875002487     -1.93509567865496      0.54457206236942
  H           1.77570524040186     -0.41272359283036      2.03458403560989
  H           2.22523988720699      0.10237387435532      0.42276121274527
  H           0.92372005197441     -2.55654079790035      1.17446055335963
  H           2.57980595151101     -2.28850555808809      0.63497872082230
  H           1.25017112815231     -2.05935255651182     -0.48935975694223
