23
Coordinates from ORCA-job NEB_reactant E -40.305703124690
  C           1.63076248048959      0.35937811810038      0.16871176939020
  C           1.34048127134159      0.44586016752578      1.47111976621772
  C           1.45664189191593     -0.81655761951633     -0.73618697902711
  H           2.00812923545261      1.24362533153004     -0.31622969503965
  Br          1.58352338078450      2.16228747588987      2.28760298423286
  C           2.86276687899847     -2.73703434295839      3.77578576475548
  C           2.47238003664498     -2.15778817548503      2.65245453968318
  C           1.05032424119111     -1.79115199687484      2.36040218349937
  O           0.86833288674956     -0.36533378788340      2.39315374980451
  C           4.27153306490221     -3.11830022426464      4.08921880270112
  H           2.13232428085461     -2.99318321424384      4.53314741451687
  H           3.19255039936792     -1.89792472762010      1.88886421380975
  H           0.38671675588957     -2.14785034061817      3.15081990489656
  H           0.71866344798697     -2.20530175578238      1.40677743462141
  F           2.32152627702407     -1.83604672128076     -0.46202930730273
  F           0.21447036290608     -1.36842819557213     -0.64705127851488
  H           1.61329833777587     -0.53600585030002     -1.78732521390701
  C           4.39101666952257     -4.62340769295392      4.32777846358498
  H           4.58740619612318     -2.58934065801723      4.99291393435672
  H           4.92921709946358     -2.81962898941875      3.27148138831503
  H           3.75269254097723     -4.93201939045261      5.15260262608128
  H           5.41766542724736     -4.88770527539005      4.56841397959167
  H           4.09187683639043     -5.17094213441348      3.43707355373268
