20
Coordinates from ORCA-job NEB E -45.550248577410
  C           0.50184827203723     -0.09874616396907     -0.87652582414205
  C          -0.79487692299441      0.39665860066514     -0.64130603054632
  C           0.57666496732485     -1.58139439294005     -1.20036282654162
  H           1.13631715778668      0.48703003899601     -1.53835891236785
  C          -1.08765076574887      1.86551789678398     -0.88919652341767
  C           1.23875727873738      0.08135910400934      0.85272344959899
  C           0.35485686480907     -0.65022267888245      1.65325086539701
  C          -1.00676976249943     -0.21520447106052      1.70000188032900
  O          -1.56860772117707     -0.23283514575662      0.20103767632008
  Br          3.06947030576161     -0.48248272680206      0.80985836485487
  H           1.21052405936762      1.16431297636333      0.90066748578669
  H           0.58615162424560     -1.67919688783775      1.88605831915925
  H          -1.15814647900418      0.82833176701979      1.96709344293343
  H          -1.69084170649292     -0.87373614062382      2.22336330480333
  F          -0.12672382693922     -1.80807721655548     -2.33746584754588
  F           1.83453750022729     -1.97750645777124     -1.46736733789169
  H           0.15700271615252     -2.23069278157089     -0.41788867462410
  F          -0.59513721906755      2.62676168155750      0.13946552812805
  F          -0.47257316126722      2.31040048692227     -2.00126065906286
  H          -2.16480318125899      2.06972251145257     -0.96378768117065
