20
Coordinates from ORCA-job NEB_product E -45.581936982940
  C           2.60271378282781      0.55757362693519      0.76181035907731
  C           1.19487811890644      1.10649674742856      0.63055625000208
  C           2.57958616368843     -0.92261968617449      0.34390345825202
  H           3.21909873382536      1.09285242380980      0.02575580543545
  C           1.02878654324997      2.61646823431091      0.93729518317313
  C           3.20555070985832      0.82662002762419      2.16024752745177
  C           2.75814616659117     -0.11887801270325      3.22323291329369
  C           1.95951484337500      0.24627484328376      4.20885245825954
  O           0.24660284007463      0.46833169430178      0.27794480141922
  Br          5.18572151700656      0.77416448577819      2.03720013866103
  H           2.99813310467460      1.85652135952548      2.45366458594671
  H           3.14340211740070     -1.12602237415022      3.15769255375456
  H           1.57332032692277      1.24906676192712      4.29353565664885
  H           1.65367072605712     -0.45311601227089      4.96627317051464
  F           3.81314820832499     -1.46303032941319      0.38637331565661
  F           1.80711451990943     -1.66893588109194      1.15971403783147
  H           2.18962680616661     -1.03877893522981     -0.67989740164464
  F           0.82013632335781      2.80373579363839      2.26018551076674
  F           2.14375910236743      3.30831203025513      0.61690847465962
  H           0.17378934541484      3.03846320221527      0.38895120084018
