21
Coordinates from ORCA-job NEB_product E -53.878936191650
  C           2.91212511721379      0.11353201335453      1.93657746903142
  C           1.55801434925334      0.80710673590822      1.90537493979038
  C           3.06446273342990     -0.57241863368004      0.66753487768562
  H           3.70483820556760      0.86598479651468      2.01720508606144
  C           1.58832244107305      2.20102657995854      1.25480023497724
  C           2.98352475464264     -0.86648392053005      3.13493410927103
  C           2.32214959896678     -2.18364556254789      2.82619938299301
  C           1.23104374940069     -2.60272895534861      3.43601293454984
  O           0.55810068113351      0.36544206216338      2.37866415337754
  C           4.43844108051016     -1.08079794026893      3.55730929702427
  H           2.46603686940740     -0.39876097997807      3.97959401302416
  H           2.79792829495423     -2.77348755928441      2.05620553364276
  H           0.74242939694795     -2.01879442841102      4.19760110783414
  H           0.77645217074608     -3.54455482327027      3.18507217203107
  N           3.16174197958573     -1.12387830952123     -0.32676261325712
  Cl          2.59104136166931      2.25593008718739     -0.20507253755252
  Cl         -0.04311943766091      2.76102328886284      0.89246685913765
  Cl          2.31670289954684      3.23902451173521      2.52134888737347
  Cl          4.49717150009951     -2.22396852275623      4.91503544437334
  Cl          5.42174249106968     -1.72038497052679      2.22118399224406
  Cl          5.16304976244273      0.46083453043873      4.09911465638719
