18
Coordinates from ORCA-job NEB E -30.218321537120
  C          -0.69492395365653     -1.50975489076874     -0.11104574673479
  C          -0.75734943247356     -0.20511930655564     -0.56134943907094
  H          -1.35291218708446     -1.80914628490516      0.68615240108338
  H          -0.45701750759798     -2.27487688826270     -0.83294584998152
  O          -0.27470071934140      0.04742829397972     -1.80936558080707
  C           0.91246604377534     -1.30272521386557      1.09256759708724
  C           0.53542919448339     -0.26237330336065      1.91508534808516
  C           0.25104656649370      0.99356982323447      1.28163809239709
  O          -0.95884699867666      0.78566276352930      0.26333338870092
  F           1.02527200155131     -2.53472791071948      1.62675816192377
  H           1.63658375981140     -1.17650964601946      0.29343928004510
  H           0.01088606081550     -0.51024949446933      2.82529016470143
  H           1.04080135037938      1.36928662853684      0.63397815585403
  H          -0.13594073026321      1.76720427885711      1.93443711372066
  C          -0.20978026808863      1.40006563452203     -2.21958781034419
  H          -0.16315902125800      1.38307719821954     -3.30655710878037
  H           0.68494906579157      1.88873941452990     -1.82391781695174
  H          -1.09280322466116      1.95044890351784     -1.88791035092816
