18
Coordinates from ORCA-job NEB_reactant E -30.241020265150
  C           2.59473473175127      0.10115443798820     -0.07064444182039
  C           2.30156122479747      1.39566485159036     -0.13195174094073
  H           3.11715508706546     -0.34185422716059      0.75097244048238
  H           2.27906149426295     -0.53707265454805     -0.87117050586545
  O           1.61392056866426      1.88207658480814     -1.19344804181855
  C           3.06480228769026      0.18664399561264      3.57968254933871
  C           2.58793564960338      1.21848358669585      2.91197747427138
  C           3.38191509279721      1.99788883076668      1.90719880319255
  O           2.62723057543935      2.36434202896634      0.77492923384038
  F           2.33347959770860     -0.45814231005399      4.49974762346729
  H           4.05714600334155     -0.23221688056984      3.48738816619537
  H           1.57541852825787      1.55369915916406      3.08168286262757
  H           4.28518738356629      1.45041472436085      1.61136073514054
  H           3.67799995928828      2.95707750373921      2.34833242505280
  C           1.34064397430213      3.26774482233852     -1.22418027396028
  H           0.79186006689493      3.43290967255328     -2.14929724957448
  H           2.26192164282295      3.85599332341974     -1.22921450765286
  H           0.72912613174579      3.57229255032862     -0.37096555197624
