22
Coordinates from ORCA-job NEB_reactant E -53.361857741960
  C           2.21828746233561     -0.72132358645912     -0.05588168171316
  C           1.14604315635289     -1.51806520596353      0.14048895918231
  C           2.85063191046552     -0.33035733748689     -1.32869039392808
  H           2.65850755961478     -0.24300699575438      0.80171501161077
  N           0.63287535787407     -1.70123548360432      1.39553406055512
  C           3.22486882550389     -4.21653410371611     -1.90614704024532
  C           2.10872696716766     -3.89509602352272     -1.27264281272879
  C           1.08867734617429     -2.93848462294612     -1.80723203239461
  O           0.43430904980111     -2.23423455641640     -0.76131890565321
  C           4.25142557260888     -5.16731236734665     -1.41014899790881
  H           3.47235997527177     -3.77983576761039     -2.86319177690356
  H           1.86957160768411     -4.32250571038960     -0.30859689720798
  H           0.27558581027435     -3.49890382405695     -2.28266500856368
  H           1.51809444109664     -2.26839497728818     -2.55497654506338
  F           3.66731861335128     -1.26477929055286     -1.88572387495408
  F           1.97343248568689     -0.01836907229645     -2.31130870981146
  F           3.62010261057050      0.75537044276245     -1.16426331308967
  H          -0.27030340372281     -2.14577579005554      1.42682457061092
  H           0.80666669330184     -0.99307126591489      2.08737675971544
  Cl          4.44278625133016     -6.49716584461865     -2.59303106998175
  Cl          5.81704289286100     -4.31746792283495     -1.26771231377148
  Cl          3.86518881439555     -5.88225069392771      0.15879201224448
