22
Coordinates from ORCA-job NEB_product E -53.390047041360
  C           2.30614458074896     -2.21424161911975     -0.30248444762086
  C           0.90116318948835     -2.49732207960063      0.29542798013059
  C           2.27760013412830     -0.77071625159271     -0.79653531920860
  H           3.08091827364727     -2.26820493873213      0.46734709823694
  N           0.80150634985777     -2.22995974108107      1.60786071798300
  C           2.58963115935803     -3.21213752565702     -1.44342986528816
  C           3.53101290147367     -2.67976086858961     -2.49056233331477
  C           3.16177892508009     -2.44793449960260     -3.73514552107873
  O          -0.00517408233252     -2.90295440347556     -0.38532515809609
  C           3.15183751389478     -4.51442052616897     -0.86765266834970
  H           1.62244158425832     -3.44462920828290     -1.91000345139377
  H           4.54346940018270     -2.49399277586092     -2.16277618269222
  H           2.15328321430472     -2.62107743050565     -4.07176648645802
  H           3.85431585807990     -2.06359156412355     -4.46280170624959
  F           3.49067966683854     -0.30785585777381     -1.12902354201164
  F           1.48360376015585     -0.57808036264399     -1.84652037281380
  F           1.83830157226894      0.05111808341488      0.17803454967006
  H          -0.10112027868912     -2.33120721779538      2.04372661831617
  H           1.54221341315243     -1.80750162845895      2.13860489015104
  Cl          3.38038930228456     -5.68959890490833     -2.17722160035380
  Cl          4.72595088429581     -4.24693622455961     -0.07659364937473
  Cl          2.05595267752267     -5.22279445488177      0.34184044981668
