24
Coordinates from ORCA-job NEB E -44.444244573060
  C           0.01608888425512     -0.50911264774175     -0.68473631596404
  C          -1.14812353638300     -0.62558932597727     -1.45580411192749
  C           0.14013059986741     -1.27701287454707      0.62061299662631
  H           0.94302276164522     -0.57643549906692     -1.25426953549664
  O          -1.20691608580595     -0.91230625243313     -2.76141709982355
  C           0.26499190939791      1.69370464674741      0.97487030920705
  C          -0.42691864074912      1.22430590343940     -0.13842192528804
  C          -1.90582723998117      0.89054834117516      0.02973029980661
  O          -2.25602980627074     -0.06879462445945     -0.97661162857432
  C           1.54812320348577      2.35314349889509      0.86544152351897
  H           0.02517089144082      1.32061658104184      1.95764721621295
  H          -0.22132670465241      1.77091985606516     -1.05517087031666
  H          -2.54939491416334      1.75938577537623     -0.12612683475731
  H          -2.10091511054215      0.47859581209728      1.02305245577617
  C           0.56494329999482     -2.71846168350764      0.35051692746959
  H          -0.80470462303139     -1.28102407663458      1.16233927348822
  H           0.89510688985298     -0.78784401456913      1.23702711793345
  H          -0.17680117610169     -3.23824150317698     -0.25307419412032
  H           0.67568033124662     -3.25264379266330      1.29067109462814
  H           1.51987468583708     -2.74614268150513     -0.16947012851376
  H          -0.38595900505228     -1.31862799035525     -3.06850944781101
  Cl          2.95199189366633      1.13057719825884      0.59691741005385
  Cl          1.66828790796511      3.46754930151681     -0.50961763377896
  Cl          1.96950358407805      3.22289005202435      2.34440310165077
