24
Coordinates from ORCA-job NEB_product E -44.504435141130
  C           2.74199759964134      1.15387719435118      0.39831149501361
  C           1.80923372222659      1.26323915378989     -0.81891728600274
  C           2.14941003015247      0.11735436524922      1.36185114767423
  H           3.71981950951642      0.80030057963781      0.05395393888180
  O           2.35846011218429      1.76687264335239     -1.92792145810081
  C           2.90154499085191      2.54111544321486      1.08318413474062
  C           1.89635516565681      3.53927015405840      0.56687859050458
  C           0.80153070473729      3.86359668103989      1.22669116249862
  O           0.66887739238098      0.90435675164039     -0.80417096795137
  C           4.31630054393817      3.10900708654484      0.96855733337075
  H           2.72162999954205      2.40728657166990      2.15438109080147
  H           2.10599205648580      3.97710938031918     -0.39839568784208
  H           0.08618940465608      4.55727334602343      0.82245422835859
  H           0.56799012669097      3.44144172718038      2.18997382964880
  C           3.10787972987051     -0.30843141962196      2.46515190642158
  H           1.86991905967530     -0.75985703266027      0.77612116773963
  H           1.23038095390803      0.52177316480678      1.78768007312501
  H           4.02241138727621     -0.71707907042999      2.04183545756763
  H           2.64313582721198     -1.07632354475901      3.07781899258385
  H           3.37488451905647      0.52235082368204      3.11343277677347
  H           3.27486180259265      2.06511422453977     -1.80094164533282
  Cl          4.82554984440870      3.35677174640222     -0.72833108762586
  Cl          4.38915136388023      4.69218737512139      1.78890057783828
  Cl          5.51529415345874      2.03659265484727      1.73050022931317
