20
Coordinates from ORCA-job NEB E -41.809321943700
  C           1.03654193244138      0.50094964535660     -0.41989096620500
  C           0.35319811447028      1.71613417194986     -0.47682689830333
  C           0.91964717389795     -0.41645146118538     -1.61723509433954
  H           2.03340683699019      0.51762941060043      0.00801773320716
  Cl          0.90664656807309      2.98484552532805      0.61357536097102
  C          -0.11102256704868     -0.33861419446513      0.95259329566206
  C          -1.39303660034030     -0.20291492622428      0.42748461490906
  C          -1.88066864946434      1.12021153312501      0.20426442628244
  O          -0.86475585879065      1.78463467024279     -0.85740839913007
  C           0.42215158799649     -1.72816128879132      1.20944365478776
  H           0.19757780062863      0.34412443006267      1.73889313491357
  H          -1.80284251484189     -1.01360378951559     -0.15584002698273
  H          -1.78456140523884      1.81403577254770      1.03682138398144
  H          -2.83541207947879      1.20352514589914     -0.30025852349581
  F           1.75996414042501      0.04603954709283     -2.60214528600298
  H          -0.09120904485222     -0.41006604757422     -2.03469977246275
  H           1.24792421267688     -1.43360354681299     -1.39309410555252
  F           0.02300547187457     -2.61788024558027      0.26988711285241
  F           1.77580665083842     -1.75716052047043      1.20817898164011
  H           0.08763822974283     -2.11367383158548      2.18823937326767
