18
Coordinates from ORCA-job NEB E -33.946139494790
  C           0.10817392731910      0.40361313271540      0.83062522861866
  C          -0.02657718367217     -0.91239191087073      1.31755667403072
  C           1.42137062775634      0.97984149475432      0.34054169906640
  H          -0.36380013674486      1.15741876133194      1.46307755079601
  C          -0.58205119506058     -1.17835136915638      2.57607617240581
  C          -0.61494357806669      0.89580925483963     -1.79021728390151
  C          -0.83224656662268     -0.00030378766792     -0.76937779930862
  C          -0.18086433076062     -1.37905621337156     -0.89508422460625
  O           0.00974496391492     -1.90891236543283      0.40896071915549
  I          -1.82803263089473      2.57249191046489     -2.07583076813964
  H           0.29126381295990      0.90207536568057     -2.37075598009017
  H          -1.84287609838174     -0.02801007682188     -0.36945811445296
  H           0.77476076570437     -1.30553145390569     -1.42066232189070
  H          -0.82463448348128     -2.08594237702901     -1.42737111914804
  F           2.19264910240185      0.10814891276893     -0.37581657247156
  H           2.02103532141010      1.27824693856066      1.21022797060874
  H           1.24213402550176      1.85228646543296     -0.29999424450364
  N          -0.96510634328298     -1.35143268229331      3.64750241383125
