18
Coordinates from ORCA-job NEB_product E -33.982044161980
  C           1.18911899756557     -0.59613568171271     -1.60945430213978
  C           2.32300542302195     -1.61975804469690     -1.53631804021546
  C           1.64315300324887      0.73629615252310     -0.99226032570035
  H           0.38197170665332     -0.99038169271291     -0.97321810911042
  C           2.91974564687146     -1.68669106385213     -0.21201737851314
  C           0.63057904509777     -0.51918384519316     -3.03248924128121
  C          -0.70234083266399      0.13863889867946     -3.09483688674141
  C          -1.75689237978829     -0.41632044707984     -3.66510000622322
  O           2.66254803586218     -2.32152503872071     -2.44657691277796
  I           1.99675097198287      0.51846584314843     -4.39026960761077
  H           0.57486087769542     -1.53019057138959     -3.44022237384936
  H          -0.77108289552820      1.12595219727053     -2.65802376298375
  H          -1.70906597236277     -1.39131953544118     -4.12176630608165
  H          -2.70848151540249      0.08408505568394     -3.70179225365554
  F           2.95623793084434      0.98913698257955     -1.27944561724540
  H           1.56374594180326      0.71062498828475      0.09973665164462
  H           1.06539476609146      1.57677396079612     -1.38873990114670
  N           3.35735124900728     -1.73336815816675      0.84369437363149
