17
Coordinates from ORCA-job NEB E -41.750633901840
  C           1.00949255637137      0.44411278384760     -0.29196492021133
  C           0.08273876125676      1.46500451043795     -0.04008026445092
  C           0.94054741640020     -0.19078834700560     -1.66791608697105
  H           2.04518747571692      0.61911027224341     -0.01231798402071
  Br          0.60422095830249      2.74138072149709      1.33809546810052
  C           0.33982636829823     -0.87628682166400      0.97948341949490
  C          -1.01822237553120     -0.96714783137004      0.66781343409642
  C          -1.81305710014912      0.20206627827011      0.80510927340335
  O          -1.15869587012101      1.31089406863189     -0.22567325217288
  Br          1.41383066113236     -2.44930860241729      0.82020907206467
  H           0.64443964554582     -0.31470170519224      1.85766229708359
  H          -1.35383704115181     -1.75022812968871      0.00502773644542
  H          -1.71791792435897      0.75972219563154      1.73461924181220
  H          -2.83392093817577      0.13564674337320      0.45146466189012
  F           1.90865133036415     -1.09001757289516     -1.85494474872871
  F          -0.21481532634398     -0.79182478644273     -1.95694498320636
  F           1.12153140244356      0.75236622274299     -2.60964236462923
