17
Coordinates from ORCA-job NEB_reactant E -41.782436701820
  C           1.67557440258887      0.01115122485684     -0.08582688816572
  C           0.99354766787693     -0.24623838326317      1.03481498685585
  C           2.13442005858739     -1.10283666485413     -0.96700949454723
  H           1.92338249010495      1.00931200466975     -0.39544999567693
  Br          0.43488312333815      1.22194785629613      2.11175087498369
  C           0.01234841386767     -3.90373887373167      3.76649907738468
  C          -0.26582658009014     -3.20624311443747      2.67926891152668
  C          -0.06991232922008     -1.72646526557203      2.59138863988828
  O           0.70022878798960     -1.47124769253351      1.42282995007027
  Br         -0.27267402289384     -5.75957896777036      3.88124939428059
  H           0.39810279510169     -3.47286766241470      4.67761201787053
  H          -0.64022334286332     -3.67881429809107      1.78331738933937
  H           0.44848947969654     -1.34315773754787      3.47889812158161
  H          -1.04591609902438     -1.22730180615473      2.50452495022983
  F           3.00674536360829     -1.92788664095617     -0.35918342631861
  F           1.12526215667484     -1.88451133925885     -1.39263697127474
  F           2.74686763465683     -0.63892263923697     -2.06174753802815
