17
Coordinates from ORCA-job NEB_product E -41.792519629030
  C           1.61833301527144     -1.14384115419202      1.05261431065187
  C           0.80457425191692      0.12912150989728      1.01102006995813
  C           1.43918145952625     -1.87476152266015     -0.28618958611601
  H           2.68274677262994     -0.88735232539241      1.13049959101258
  Br          1.36758219587570      1.37855375374389      2.40191009210904
  C           1.20775999422771     -1.96226910264186      2.29481208825765
  C          -0.13453399558044     -2.60529939543545      2.18530860537990
  C          -1.17329707531038     -2.19862663666851      2.89132063968117
  O          -0.08439565505993      0.41580508965541      0.29549948059229
  Br          2.58376000043129     -3.33505751668395      2.67309706459976
  H           1.24770990783052     -1.29945097342573      3.16434824592045
  H          -0.21184677520572     -3.44028336665957      1.50420255441500
  H          -1.10870836246294     -1.37639094014260      3.58598947681372
  H          -2.13318145700593     -2.67372116637368      2.79770788224720
  F           2.10206575623471     -3.03094877054681     -0.32610015393497
  F           0.16934620581448     -2.14674060095019     -0.58728185451796
  F           1.92530376086638     -1.11863688152364     -1.28035850706983
