17
Coordinates from ORCA-job NEB E -42.295502340290
  C           0.76968024687788      0.74926031718724      0.71092349656768
  C          -0.56024445818879      0.29067785193588      0.86275093880482
  Cl          0.89991243649570      2.48486224902547      0.41359302680065
  H           1.49073574184361      0.44737088546746      1.46402697280047
  C          -0.83180554669643     -0.90774361863209      1.73772846619013
  C           1.35071117411125      0.02091411274276     -0.87243333727068
  C           0.22068234772553     -0.35005079130694     -1.63314636099553
  C          -0.87584762157599      0.58212643944704     -1.56370878302693
  O          -1.40423587102889      0.46897195664510     -0.11792748698195
  F           2.19990629511661     -0.97901803519635     -0.55018771373432
  H           1.93408692913930      0.88070495577652     -1.20169577414521
  H          -0.02178580341119     -1.40361180750831     -1.66004237481819
  H          -1.75313019634392      0.32200540461333     -2.14732429069711
  H          -0.59832635378329      1.62804652848093     -1.69590267576195
  Cl         -0.19316883035023     -2.41510345972136      0.97622687998643
  Cl         -0.05387135098027     -0.71816511648363      3.31415295281947
  Cl         -2.57329913895088     -1.10124787247305      1.96296606346224
