17
Coordinates from ORCA-job NEB_reactant E -42.332100783060
  C           1.73084866916055     -0.18380949382287     -0.09098023160528
  C           1.78361649568440     -1.46969540198160     -0.44235838944014
  Cl          2.23965119212847      1.17060269497419     -1.02299275032075
  H           1.35178915494512      0.10047955164790      0.87550832002182
  C           1.30749524635750     -2.55241591954145      0.50288647726148
  C           3.60606867763349     -2.38089077026733     -4.66597647154123
  C           2.55006230150528     -2.32304766199207     -3.87784317122874
  C           2.41062093331769     -1.32856917202851     -2.77106830308439
  O           2.19059875926921     -2.07367412988058     -1.57651489622938
  F           3.69493150587110     -3.27111435344420     -5.65978798069407
  H           4.47149706084713     -1.73457645630544     -4.62269417553594
  H           1.73918881441955     -3.02522170027101     -3.99780166430908
  H           1.54826008924955     -0.67872273193186     -2.96268786003484
  H           3.31509497610994     -0.71892700814484     -2.68219802332460
  Cl          2.55838830074328     -3.81057061456356      0.62200596907912
  Cl          0.93526037434036     -1.98704522292981      2.12778912327360
  Cl         -0.16707255158263     -3.28210160951695     -0.18918597228757
