17
Coordinates from ORCA-job NEB_product E -42.336594942040
  C           2.71482926729766     -1.47709040095562     -1.21243412270343
  C           1.39665766758974     -2.14495866047141     -0.87889703898338
  Cl          2.39362420388476      0.26627484936998     -1.04190302248200
  H           3.49693234961759     -1.74655686245300     -0.49938508503737
  C           1.37364635620809     -2.82751885601210      0.49971282795268
  C           3.20014924214370     -1.77394008833691     -2.64720965668302
  C           2.16888081080190     -1.51718968921114     -3.70271671811891
  C           2.05468750293613     -0.36331538718544     -4.33197900343304
  O           0.43925283873682     -2.15163322369547     -1.58961999457765
  F           3.57805456096571     -3.10033512332814     -2.66343427317473
  H           4.11189620201415     -1.18929200394071     -2.82814689371855
  H           1.51244470298988     -2.34862417829088     -3.90855478735077
  H           1.29068104422771     -0.20386583473627     -5.07159071805469
  H           2.70879239766805      0.46812856194028     -4.12685506252074
  Cl          2.52861051838979     -4.18309041152330      0.41218908958825
  Cl          1.88547615993026     -1.68236737630816      1.75434021853772
  Cl         -0.23821582540194     -3.43572531486170      0.86758424075963
