21
Coordinates from ORCA-job NEB_reactant E -33.981333305220
  C           2.23874550801975     -0.29245023259359     -0.35284062667521
  C           1.59831713876096     -0.63403441358201     -1.49768402094986
  C           2.55349426100836      0.98042129261420      0.11353422341256
  H           2.55971123691209     -1.09490729279595      0.29695943712036
  N           1.32955916085587     -1.94729875529643     -1.79056685633589
  C           3.50181394252890      1.51774901260818     -3.07996982382989
  C           2.51511386765866      2.15228354568575     -2.45994424475074
  C           1.13865778262827      1.57256392389921     -2.30511113930076
  O           1.08429489644651      0.16470864317110     -2.45434383581685
  O           4.78271461712932      1.91385618435647     -3.23972613241279
  H           3.35643013337136      0.54895962887510     -3.54062755148778
  H           2.64846873607709      3.11598246672898     -1.99851690560270
  H           0.46956037459338      1.94668221648647     -3.08941263749086
  H           0.72608044131745      1.86384961960677     -1.33174265978007
  N           2.85665444689956      1.99275573289817      0.57222083647077
  H           1.02905504264399     -2.12624689415345     -2.73440056295372
  H           1.90252769149509     -2.65216647665445     -1.36090276974813
  C           5.16427509865278      3.12338699052136     -2.62196532479659
  H           6.23434316591359      3.22334798921752     -2.79371518974508
  H           4.96129322670331      3.09388320159758     -1.54758525373211
  H           4.64058923038374      3.97557361680903     -3.06575896159468
