21
Coordinates from ORCA-job NEB_product E -33.983881043700
  C           2.71764029771196      0.77961094456308     -1.19173354498211
  C           2.49523635983740     -0.66388207882036     -1.69678358116894
  C           1.60834412316171      1.18320520937658     -0.37467678621040
  H           3.61532976785153      0.75980413631057     -0.55972519994471
  N           2.16568584502634     -1.51383929040593     -0.69581947918453
  C           2.95331482262439      1.80777401650947     -2.34677079711181
  C           1.95576627981901      1.60866712562992     -3.45600104338759
  C           0.68610417043692      1.95622944916604     -3.37291696401633
  O           2.64217817180771     -1.01179652343094     -2.83680503402154
  O           4.24136969999365      1.68832799466822     -2.89191130621774
  H           2.82653309815936      2.81476248515953     -1.90806592697184
  H           2.37042122658442      1.14137281609963     -4.33455773672587
  H           0.00542826738715      1.78796772481507     -4.18861079524484
  H           0.27055138239688      2.41366583427110     -2.48904814738327
  N           0.72831471794763      1.49215147483485      0.28890791182751
  H           1.95021617600167     -2.46725263448628     -0.93927902602170
  H           1.90963926877024     -1.19045346834641      0.22126593806368
  C           5.26941692157725      2.29442697390770     -2.15568744337977
  H           6.16454016756727      2.22179544845507     -2.76989556016007
  H           5.45707539864105      1.79037877605253     -1.19869765393523
  H           5.04769383669644      3.35098358567056     -1.95708782382291
