17
Coordinates from ORCA-job NEB E -25.211379250900
  C           0.66930164636550      0.45491387198007      0.66383027739522
  C          -0.55615888715137     -0.19999066312506      0.67648617163873
  I           0.47015924109126      2.96817909281599      0.63981810157909
  H           1.19062195089534      0.46292232408896      1.61129757926472
  C          -1.19756813487536     -0.63904603662467      1.95402054101242
  C           1.54273924157272      0.16879374335964     -0.58104971653215
  C           0.65763731921641      0.25445683136672     -1.75626286624983
  C          -0.63191087603528     -0.42739249808939     -1.70665569328883
  O          -1.26138032058944     -0.49888716166400     -0.41421080208016
  H           2.36304785537602      0.88188942200448     -0.64831711965552
  H           1.97621094696816     -0.83079389694564     -0.44585880401163
  H           0.77759929721806      1.06807565408251     -2.44924563790729
  H          -0.54653207963235     -1.48439232419195     -1.99986391003570
  H          -1.36496537233983      0.04123245934309     -2.36878031049867
  H          -2.01325943857924     -1.32233100853030      1.73518015039031
  H          -1.60110838142830      0.22570929076355      2.48195633332893
  H          -0.47443400807231     -1.12333910063398      2.60765570565036
