17
Coordinates from ORCA-job NEB_product E -25.268292277460
  C           3.13300091668681     -1.20183197918286     -0.85268127807749
  C           1.62281321602756     -1.09622907575590     -0.75004181464121
  I           4.02058035557532      0.52475163513203      0.10676205403505
  H           3.49584461629669     -2.06964977384484     -0.29975706869059
  C           0.90523895708501     -2.40951842585692     -0.91888976289407
  C           3.56558815122701     -1.30210397059840     -2.32011986817534
  C           2.94938124501761     -0.22544934061936     -3.15889602424161
  C           2.13398106238382     -0.44950675436607     -4.17059757291505
  O           1.05779952139461     -0.05804766947219     -0.54841842968122
  H           4.65610976440694     -1.23060038435489     -2.37221625175336
  H           3.27671945157398     -2.28465925336671     -2.70440188101772
  H           3.20463591341576      0.78639186991168     -2.87475476272280
  H           1.86062357215750     -1.44750829212402     -4.47548718897171
  H           1.70953734212849      0.35481138752852     -4.74512415545823
  H           1.29077247545994     -2.96328181089000     -1.77043964439560
  H          -0.15950902701198     -2.23164030414040     -1.04320014661625
  H           1.06008246617493     -3.01012785799968     -0.02323620378281
