17
Coordinates from ORCA-job NEB_reactant E -25.249605104520
  C           2.24725051602157     -0.29641480081879     -0.46036924248685
  C           1.51548012669759     -1.28611468366166     -0.96366020927304
  I           3.27767209251227      1.30609684166218     -1.37241847716913
  H           2.34350899680451     -0.22722711807716      0.60791239865292
  C           0.84885288119856     -2.24741021744713     -0.00925190297832
  C           4.27883096602496     -0.98850309039881     -4.04203689666012
  C           3.30679923436412     -1.63178943538872     -3.42540652975675
  C           1.88413801977983     -1.15771092557000     -3.36377978892974
  O           1.19409028065802     -1.64630014855021     -2.22734187864626
  H           5.28023583321622     -1.37955248474409     -4.08239586964896
  H           4.11246909104752     -0.04301984308085     -4.53077876708924
  H           3.48364371664162     -2.57964259711158     -2.93401677001106
  H           1.32389811983374     -1.59091128573269     -4.20203833509259
  H           1.81887360715883     -0.06863875978027     -3.44352549445253
  H           1.30196120202602     -3.23223701984724     -0.11094563553728
  H          -0.20228331208956     -2.33517509461539     -0.27515236162731
  H           0.93597862810417     -1.91744933683759      1.02010576070624
