22
Coordinates from ORCA-job NEB_product E -32.808636475000
  C           2.19887156085937     -0.44328588547501      1.28602725098857
  C           1.20289266898068      0.58401328666163      1.84035112453069
  C           1.66576234153558     -1.05952957499467     -0.01394013245571
  H           3.15034965336809      0.06489771273587      1.09863543528106
  N           1.75017429142945      1.47861746658786      2.69269203761506
  C           2.43389593572538     -1.51426687472650      2.36865314070459
  C           3.36268852053607     -2.59814060713131      1.91917964607688
  C           2.98708467781737     -3.84141354958218      1.68783014902899
  O           0.03572558477707      0.61254082944194      1.52415812772177
  F           3.00128383257626     -0.89594273939382      3.48104004664938
  H           1.47515528437970     -1.92497225911377      2.70743713768914
  H           4.39277429370720     -2.28792866957569      1.80932564103099
  H           1.96439794522612     -4.15801736437593      1.80993936126862
  H           3.68395685071055     -4.59202921723558      1.35719187852974
  C           2.75983035340983     -1.32185385027580     -1.04040978047497
  H           0.92969736086731     -0.37276270871205     -0.43549130889401
  H           1.14264325559387     -1.98977503720492      0.21262339850180
  H           3.27039458698106     -0.39720237900279     -1.30103704709923
  H           2.32643702722258     -1.73710381422704     -1.94680988566861
  H           3.49229004231848     -2.02851631624831     -0.65795573525124
  H           1.12996264791826      2.11360358644791      3.16929600601045
  H           2.66613128405971      1.33826796540018      3.08226350821605
