22
Coordinates from ORCA-job NEB_reactant E -32.771033703120
  C           1.87320382522063      0.10798836804219      0.08616275010596
  C           1.73944505062032     -0.13353355702597      1.38998451977264
  C           1.59790678158558     -0.88761059379774     -0.99717273638942
  H           2.21639719802510      1.08271411691930     -0.22729001042844
  N           2.08404171775640      0.77412111199646      2.39473054198107
  C           3.10837751890715     -2.64074538188942      4.45052542411008
  C           3.11278453303274     -1.95645318559908      3.32411243930275
  C           2.25457185591630     -2.31534272889005      2.14902870418863
  O           1.26315915285634     -1.33490968994434      1.87843838664392
  F           3.87764582772745     -2.29283406896827      5.49566070003897
  H           2.53149280525982     -3.53145207765076      4.65505667121101
  H           3.71909569228344     -1.06768168118720      3.22748664008582
  H           1.69731708959486     -3.23482575218460      2.34386600993695
  H           2.88973510455555     -2.45536831886459      1.26341746509312
  C           2.86772353766671     -1.24347936019055     -1.77219155528829
  H           0.86910413752314     -0.46438736350689     -1.69483697509259
  H           1.16049355806404     -1.78724091945063     -0.56194826076233
  H           3.29637217791604     -0.35274629384129     -2.22626609433427
  H           2.64446721164188     -1.95942168329018     -2.56002909869862
  H           3.61350429909399     -1.67938474724633     -1.11033666087840
  H           1.55550056040128      0.63929953676007      3.24529099202672
  H           2.10346036435124      1.73719426980986      2.09511014737469
