19
Coordinates from ORCA-job NEB E -46.681542459210
  C           0.74710389120832     -2.17270503269547      0.77001575513108
  C          -0.70364949347869     -1.98785513179939      0.45014993544333
  N           0.70169489469759     -1.20309811992507      1.62544801357442
  H           1.55151205186711     -2.82923282399621      0.51683417406223
  Br         -1.82396546820046     -3.48745544860505      1.12114570481583
  C          -0.11392672407454      1.64669209461376     -0.39797868683663
  C          -0.16709173036624      0.49014205489769     -1.03953141278730
  C          -1.39881754113993     -0.35507507365451     -1.12569948538136
  O          -1.10874466836919     -1.72017881141465     -0.81564576190965
  C           1.08018439518593      2.50882738676681     -0.25836087045958
  H          -0.99659527996666      2.05587206880701      0.07866448277915
  H           0.70619135940026      0.06321129894732     -1.51678470252325
  H          -1.76212547781002     -0.39984092569736     -2.15574140911544
  H          -2.19011323542802      0.02290694054641     -0.47005720040033
  O           1.36762160961714     -0.58297120018694      2.38031243140765
  O          -0.73356671902774     -0.91953531590087      1.37954768816058
  Br          0.79060658556936      4.16950867065895     -1.29352180040065
  Br          1.32279549729695      2.99689196736188      1.63410329266950
  Br          2.73088605301884      1.70389540127565     -0.88290014822957
