19
Coordinates from ORCA-job NEB_product E -46.693438811150
  C           2.47377956233160      1.52290502543646     -0.75634066234198
  C           1.54429905290928      0.39066196811243     -1.15019642231334
  N           2.34596634854073      1.65027730622985      0.75108549199857
  H           3.51369455855582      1.26141735095068     -0.97761925575974
  Br          2.34241325903416     -0.79315123753520     -2.47491701313229
  C           2.00569855456242      2.80979659536625     -1.46196767698272
  C           1.39077833326998      2.50851265691266     -2.80650608336799
  C           0.11612834668124      2.71761118486057     -3.07644982706631
  O           0.45478483010829      0.19368734271507     -0.74706600836451
  C           3.14496010674612      3.81566401496234     -1.62006561044587
  H           1.23851315336219      3.26742454673857     -0.81812941279631
  H           2.06332240017922      2.11221179861812     -3.55515979482065
  H          -0.29219083801365      2.49283804431848     -4.04558137184227
  H          -0.56867120693662      3.11247466224004     -2.34410588427564
  O           3.15219038574684      1.03148236198105      1.38422084416288
  O           1.43589385581598      2.30887707580564      1.16632803740490
  Br          2.44843965533124      5.44577214352399     -2.43619737092418
  Br          3.93895586896628      4.28492815411388      0.11805099561098
  Br          4.57724377280890      3.12280900464912     -2.76268297474350
