20
Coordinates from ORCA-job NEB_reactant E -36.474027767270
  C           0.97067908698023      0.20494519473676     -0.57616233642097
  C           1.58134344375856      1.30766682622199     -0.16064638335175
  H           0.15348968194962     -0.18476913188178     -0.00358149843580
  H           1.25104433634781     -0.31207496266481     -1.47026132339088
  O           2.63129599955912      1.94800250874731     -0.74509775101915
  C           4.29366473127237      3.69890884749198      1.42959708097749
  C           3.31870319645753      2.81698809769780      1.62079720709344
  C           1.86947313981318      3.07944734662934      1.38260352822328
  O           1.16561718060037      1.92423087275718      0.98236061673131
  N           5.65958835254418      3.35959848528885      1.68092514158913
  H           4.15860804039535      4.70673995653226      1.06900602306802
  H           3.57129875112430      1.82447444660858      1.97629139171676
  H           1.74053946927578      3.88914429320721      0.65336324438053
  H           1.39254839064204      3.37149014252905      2.32532277903335
  C           3.21483026226758      1.34732506224377     -1.87765436878990
  H           4.05546209492272      1.98349057754816     -2.14845799098196
  H           2.50542781029281      1.30169676918983     -2.70829088728256
  H           3.57326619732382      0.34057465688912     -1.64789420543728
  O           5.91461194213687      2.24888917052943      2.09502934735788
  O           6.48260789233576      4.22173083969798      1.45345038493905
