20
Coordinates from ORCA-job NEB_product E -46.055435345710
  C           2.57857207010430     -1.13064222457127     -1.45168289174583
  C           1.24348782016784     -1.82679718933383     -1.24527508540054
  C           2.48270920767746      0.31333036199007     -0.92005742718748
  H           3.33887159891014     -1.63709059921755     -0.84664139903302
  C           1.15464736024642     -2.58030233142425      0.10820086444125
  C           3.04122346615869     -1.14657690062573     -2.92044635413935
  C           2.17230596538942     -0.39963648869149     -3.87395691667958
  C           2.63734707480908      0.55667260044982     -4.65695322821585
  O           0.31230224870018     -1.81228898242641     -1.99010318805554
  Cl          3.11143416768997     -2.88305020805425     -3.42198082056078
  H           4.06938590088923     -0.77691201304250     -2.96849787980242
  H           1.13537391320667     -0.69687694939928     -3.90105291545229
  H           1.99551663582017      1.08150075333938     -5.34181041651880
  H           3.67138845965098      0.86043682604505     -4.63592692825431
  F           3.64187585586516      0.96540887922832     -1.16030352744483
  F           1.51298197993277      1.01447479675848     -1.53880414339270
  H           2.29141397059280      0.35411746340967      0.16348500781503
  F           2.19174483878529     -3.43073308042123      0.25084731406845
  F           1.25522248317488     -1.68141146897933      1.12057540244582
  H           0.21239498222856     -3.13502324503366      0.21808453311279
