21
Coordinates from ORCA-job NEB E -46.055849191460
  C           0.66960040462206     -0.94013923315447     -0.31157527757171
  C          -0.39845088342473     -1.14319238996480     -1.18725915987613
  C           0.64625379495457     -1.59906514600075      1.04861208861026
  H           1.66176477633706     -0.97136003065803     -0.74746617707094
  O          -0.12551837873140     -1.05494925345919     -2.51651096405445
  C           0.29543376722068      1.04177516578615     -0.04040315842545
  C          -1.01557770875549      1.04155292821040      0.41458912813101
  C          -2.02204415691020      0.53885291056878     -0.45338288183896
  O          -1.62060636930532     -1.03574921081543     -0.80431930645958
  C           1.38571149687258      1.60749478475589      0.83651048699369
  H           0.49156867688127      1.26933246636227     -1.08412516886228
  H          -1.19413309745047      1.02403733464424      1.47817338655653
  H          -2.03519352211138      0.93960723359830     -1.46391109399225
  H          -3.01072126574307      0.41587514295780     -0.03245904326909
  F           1.75715284216960     -1.29425685304586      1.75179147883496
  F          -0.40719060251740     -1.25864272461231      1.81978308111795
  H           0.62651639910094     -2.70022563326973      0.94699195485417
  H          -0.95469865160035     -1.05382499656814     -3.01536538819917
  F           1.22531150067621      1.31218459103873      2.14032925480669
  F           2.60730096021560      1.15057532507451      0.46705722663236
  H           1.41752001749925      2.71011758855164      0.75293953308238
