21
Coordinates from ORCA-job NEB_reactant E -46.082606094230
  C           1.98169184074387      0.21047813865187     -0.12349366309987
  C           1.56846937568186      1.13952003253900     -1.00715805904067
  C           1.63200985454888      0.05559009205029      1.31261891349320
  H           2.63259304620463     -0.56290815133157     -0.49903883629707
  O           1.92342253139390      1.05354874935200     -2.30802491739906
  C           2.03394861612400      4.90842143243549      1.05123707595404
  C           1.95981511384147      3.64795305061743      0.66038722051966
  C           0.67816314923157      2.94866939941421      0.32998470452018
  O           0.77466151116558      2.20512299383760     -0.87700520363350
  C           3.31939648520215      5.59780663185049      1.39386126710380
  H           1.15983125828977      5.52997058726747      1.17716629015510
  H           2.85879392542520      3.05533066666709      0.55969579614677
  H          -0.11852764723593      3.66935189237000      0.13249704973302
  H           0.36626332382531      2.32145266073181      1.16969396794330
  F           2.16100381104513      1.02737316362050      2.11694095741862
  F           0.28613987399845      0.10870876896016      1.54099218441096
  H           1.98591698475702     -0.90748968526510      1.70711080081631
  H           2.39196951629867      0.23106898292773     -2.49240541998099
  F           3.29149684656671      6.06128930491987      2.67235336312811
  F           4.38845962848742      4.77360078015190      1.31157170433739
  H           3.51858095440433      6.46724050823178      0.74221480377073
