20
Coordinates from ORCA-job NEB E -33.638526710410
  C          -0.08046256219555      0.88563183988329     -0.31810590093904
  C           0.00614469374186      1.01373082103562      1.05094033498240
  O           1.03711394551253      0.57020329871979     -1.07142753667574
  H          -0.85071931583920      1.45460456123188     -0.83866657459587
  F          -1.15738429114921      1.56197766295208      1.60042673388827
  C          -0.83698379251982     -1.21395429810365     -0.31554876597362
  C          -0.69898233668256     -1.57465597478546      1.02505894764212
  C           0.52493042889529     -1.46660583515478      1.65470773301250
  O           0.74866920367182      0.41450243003461      1.83586301030898
  N          -2.05835833406598     -1.20573428797324     -0.91640670326500
  H          -0.00069670338312     -1.37159083988825     -0.98262924014554
  H          -1.59601797096246     -1.59856229518048      1.63116016847176
  H           1.42615709057620     -1.56065786181984      1.06952308210718
  H           0.61562664296765     -1.70359899246650      2.70127003296554
  C           1.81570025713581      1.70044651937404     -1.41174415870615
  H           2.62827291814937      1.33354231561028     -2.03565304137172
  H           2.22412346604178      2.18062273042905     -0.51721264695995
  H           1.22258631328699      2.43276991039937     -1.97205561492518
  H          -2.85256139378213     -0.99588729135441     -0.33133034452704
  H          -2.11715825939927     -0.85678441294340     -1.85816951529391
