20
Coordinates from ORCA-job NEB_reactant E -33.667387159580
  C           0.91676650355422     -0.06560910157383     -0.33911537916289
  C           0.83123522107631     -0.97742512298080      0.62582030391988
  O           1.37420215964846     -0.35988486056805     -1.59128622007638
  H           0.61859900923639      0.95536937655139     -0.13639676370481
  F           0.25459566352123     -0.58276763958051      1.80385091862812
  C          -0.92748812891669     -4.34177336550242     -0.81010986592990
  C          -0.83280073663936     -3.37111739585636      0.09672818842104
  C           0.31676244961540     -3.24581669759303      1.03875173994510
  O           1.25846799665670     -2.23630565679585      0.60793270432135
  N          -1.99707805306686     -4.53295805928939     -1.65609999284264
  H          -0.17296849133751     -5.11494406301638     -0.86506876052165
  H          -1.58138757283571     -2.59245061174291      0.14483957093579
  H           0.91004499293380     -4.16043094345031      1.06611448734534
  H          -0.02579034241649     -2.99843057509014      2.05063145132346
  C           1.94290818373105      0.73195862066797     -2.27611437739995
  H           2.16177361269141      0.38054307489536     -3.28255545543276
  H           2.87034159757917      1.06373620216816     -1.79747040347437
  H           1.24606766986279      1.57627938870512     -2.32713353959688
  H          -2.60701200302790     -3.73652638100149     -1.76347502100383
  H          -1.80343973186640     -5.01754618894653     -2.51714358569404
