17
Coordinates from ORCA-job NEB E -38.812556151110
  C           1.09584966157165     -0.15467980405802     -0.27868291755332
  C           0.46634554242518      0.46409863043691     -1.37829118978797
  C           0.84786521932460     -1.63305050305429     -0.06052611088664
  H           2.15529654914504      0.04678876239375     -0.14283948168948
  H           0.97672443697973      1.30248001560454     -1.85813667170002
  C           0.20358688002540      0.69422070786395      1.15799400047009
  C          -1.14946147646174      0.43961536555871      0.89848386321617
  C          -1.69219686615598      0.92844203518419     -0.31963458906673
  O          -0.80381247401584      0.33924331218802     -1.55535325865091
  F           0.73322322680289      0.16448750915885      2.27462444674933
  H           0.60887253997785      1.69500476088480      1.01603060136027
  H          -1.59290200458571     -0.42605245801010      1.36598582853082
  H          -1.56537751904645      1.98948347598570     -0.51647715449352
  H          -2.68648225110025      0.57684122680420     -0.56494398210616
  F           1.48380304140813     -2.32799591283801     -1.02656992038117
  F           1.34683105303275     -2.08464426586746      1.09548081732177
  F          -0.42816555932724     -2.01428285823574     -0.10714428133252
