17
Coordinates from ORCA-job NEB_reactant E -38.851851927640
  C           1.84676536586350      0.08804197901331     -0.00945592968292
  C           1.17470411481734      1.13409042116642      0.47386754484623
  C           1.96296003060203     -1.18990172235418      0.75143890843670
  H           2.33950107524556      0.11922526365343     -0.96281340451298
  H           1.10416229008782      2.04887571424889     -0.10733104290196
  C          -0.12169165858519      3.21318681101566      4.31214497487421
  C          -0.41065924963297      2.20691273720305      3.51014756865696
  C          -0.19388368960304      2.24965775483875      2.03234513335201
  O           0.58085459455634      1.11674940832055      1.66690690561763
  F          -0.34387307342543      3.15080377658266      5.62864929052101
  H           0.28526602055986      4.17055043271018      4.01669190519655
  H          -0.80412111019353      1.28337260087477      3.90587514566880
  H           0.31544540366155      3.17615879679767      1.73890273124624
  H          -1.16398971493083      2.19874820857546      1.51510991256959
  F           2.63465552603169     -1.05962490552877      1.91111810836565
  F           0.77109594787340     -1.72481327808019      1.07467732330730
  F           2.61550812707189     -2.12663399903767      0.04472492443895
