17
Coordinates from ORCA-job NEB_product E -38.849685270920
  C           1.71157089263228      0.93771296527816      1.52290872803811
  C           1.22885904205057      1.34582276392326      0.14128599272370
  C           1.25691523411961     -0.48113697515223      1.87520383070346
  H           2.80966646637763      0.91730347098555      1.50346894459857
  H           1.57535835051115      2.36082755616156     -0.13226661580918
  C           1.29214240990118      1.98993104454122      2.57972627853226
  C          -0.11528339652603      1.80343513882429      3.06560236007465
  C          -1.16449802167420      2.31632058512462      2.45357203051406
  O           0.56253162037299      0.68235514326530     -0.58834008792522
  F           2.17130359660224      1.91220559283644      3.63435719652645
  H           1.43343182950384      2.99069188877335      2.14685495500730
  H          -0.20727083721733      1.20019455211054      3.95670064309095
  H          -1.07169892961778      2.91437391613893      1.56148101999946
  H          -2.16201727959125      2.14770017162508      2.81620971936938
  F           1.59048788932487     -0.81783489442787      3.12748817732733
  F          -0.06093256586047     -0.66457928509996      1.77091098964589
  F           1.84473369909070     -1.37832363490824      1.07333583758285
