24
Coordinates from ORCA-job NEB E -47.241972861020
  C           0.18707250006925      0.62976179000409     -0.55919221030421
  C          -1.21350788221115      0.45404149006562     -0.44004884244581
  C           0.79063967311604      0.40030384750025     -1.90443799698139
  H           0.60862406570788      1.52505562667260     -0.10780809674356
  O          -1.95139882212425      1.16939381404815      0.44690624634346
  C           0.65284467027555     -0.81225976877602      0.79336854874167
  C          -0.01719266689596     -1.94006496537000      0.31474750933559
  C          -1.41951356578805     -1.92107961961557      0.23310051461120
  O          -1.75861319554880     -0.60882712454213     -0.86215023491753
  C           2.14793513035006     -0.86974157680987      0.97552720342420
  H           0.18356718126093     -0.25899133376834      1.60231732209074
  H           0.53307312239598     -2.64606141213254     -0.28819407321146
  H          -1.98210050843026     -1.51268491678917      1.06483333344961
  H          -1.90746085521301     -2.74160052997095     -0.27243251847667
  Br          0.05715734918353      1.83446982276628     -3.12811046518417
  Br          2.71584443660743      0.69504860783282     -1.91377024281590
  Br          0.41980619093097     -1.27261992206859     -2.77708048076787
  C          -1.51249100846931      2.43705081242551      0.88583011400382
  H          -1.17862917571230      3.05662846922342      0.04944754602295
  H          -0.71233849394838      2.35189970103007      1.62733767819776
  H          -2.38044320338137      2.90067093912937      1.35138381590868
  F           2.74337171344522     -1.66292988370601      0.03505970571547
  H           2.36796032204676     -1.32166440512044      1.95166708670340
  H           2.62579302233326      0.11420053797143      0.92169853730000
