24
Coordinates from ORCA-job NEB_reactant E -47.279339803310
  C           2.09451251711553     -0.01980887117836      0.10336283083487
  C           1.74062583439001     -0.22590634229149      1.38887977644675
  C           1.95444443798574     -0.94051360624463     -1.01756954095507
  H           2.52140539567150      0.94610835179014     -0.12231485747531
  O           1.87400701335640      0.81853133916397      2.22400288216263
  C           3.20258422205860     -2.95680374329812      4.21939475964002
  C           3.09340347086172     -2.26178496556925      3.09937809765567
  C           2.03159364986416     -2.49544651759946      2.07213574563683
  O           1.18905702102976     -1.34732475597462      1.89865880698647
  C           4.25895359285605     -2.73225060487763      5.25195876025067
  H           2.51869015466335     -3.76076791007558      4.45199939803638
  H           3.79412851496963     -1.46585954483916      2.88000893463390
  H           1.34315495885194     -3.28486722154793      2.37712885712510
  H           2.50226947619140     -2.77823075666126      1.12402119214970
  Br          1.72011438028028      0.05124148542334     -2.68555456165317
  Br          3.62788554178726     -2.07017590045520     -1.29203406757895
  Br          0.46003769397999     -2.17943651848959     -0.87698796198766
  C           1.40709353551226      0.67515016359320      3.55576198514973
  H           1.54388663125118      1.65282386821566      4.01151109018087
  H           1.98817372643419     -0.07343914506299      4.09983601244676
  H           0.35154669585888      0.39643407835028      3.57117130521839
  F           5.00929633677480     -1.61693648206924      4.98374799703161
  H           4.95220903406157     -3.58184873231557      5.29319593977507
  H           3.81152616419382     -2.58338766798651      6.24260661828876
