18
Coordinates from ORCA-job NEB E -38.180971419800
  C           0.35712473553661      0.90409498039676     -0.68696397675028
  C          -0.86838239957275      0.70035470611578     -0.00772650071899
  C           0.37609693668041      0.59705012087759     -2.08232730053925
  H           0.89825201992172      1.81885433136886     -0.45053999357081
  C          -1.12433574758220      1.48641424671287      1.26784026891575
  C           1.38046527308534     -0.50794259618842      0.02090149014738
  C           0.60910208542896     -1.63106336458538     -0.29674514040131
  C          -0.67714632395657     -1.73026102898083      0.29803611237423
  O          -1.52217204972399     -0.40241844772061     -0.17702976220005
  I           3.33027637200502     -0.35810601186830     -0.82300228162267
  H           1.41473696928532     -0.17958335226690      1.05276140374893
  H           0.78378921398763     -2.13770217492028     -1.23497049622828
  H          -0.72720149673682     -1.59727154726641      1.37553228736998
  H          -1.30746026562230     -2.53648787948490     -0.05584686565577
  N           0.37155590576790      0.35777948458919     -3.19950377350410
  F          -0.33420545381691      1.01469040054524      2.28288995375182
  F          -0.79108735700212      2.78514796742500      1.11782892120386
  H          -2.16940841768524      1.41645016525073      1.59886565367958
