18
Coordinates from ORCA-job NEB_product E -38.214052526080
  C           2.83064790171941     -1.12277401033259      0.89353240565877
  C           1.42831945497176     -0.81906848672255      1.39839875899694
  C           2.79045940096730     -1.36899182602639     -0.53345758860912
  H           3.49865161184583     -0.27462353320015      1.08493169538025
  C           1.37535634127594      0.38047658497359      2.37436176178661
  C           3.32434963888315     -2.37098045404219      1.65685817516771
  C           2.50783248713454     -3.57624915663048      1.36640833990225
  C           1.96682040437457     -4.32360363212505      2.31202532268840
  O           0.45119158297059     -1.45879063577961      1.14597266556047
  I           5.41221561217711     -2.74883239533973      1.11087504271553
  H           3.35336567021020     -2.15684336992495      2.72644554454925
  H           2.38048996372704     -3.81573948257715      0.31934280577058
  H           2.09012646151714     -4.09694149451733      3.35903050034977
  H           1.37749943612857     -5.19070963014936      2.07361001573645
  N           2.76941512389586     -1.56530945076511     -1.65684821552259
  F           2.12056124603981      0.07863360828609      3.46615736228505
  F           1.93859919359632      1.47057131467838      1.81218709758976
  H           0.35259846856486      0.62207605019458      2.69436830999391
