18
Coordinates from ORCA-job NEB_reactant E -38.213042073010
  C           1.70846101159904     -0.01294243234459      0.11506574333768
  C           1.55458659573438     -0.88359379298099      1.12529806454811
  C           1.70064785406387     -0.42058038724399     -1.23076051844839
  H           1.83856670428302      1.04177441095314      0.30285748155380
  C           1.56089194532542     -0.40541040917731      2.56624484801269
  C           4.15572950919305     -3.34154662484792      2.50049727847371
  C           3.27681478530090     -3.35972876819072      1.51795016068978
  C           1.80049390368365     -3.19315758439977      1.73427376609680
  O           1.27350445845178     -2.18148567052658      0.88219099737366
  I           6.21537466874213     -3.58101965021471      2.19454196694131
  H           3.88932717710739     -3.21490491782518      3.53623495652298
  H           3.57341186521801     -3.47208534258235      0.48498755235160
  H           1.57638415542656     -3.00140092078137      2.78929700691015
  H           1.27469690893608     -4.09880655740930      1.41632527855626
  N           1.70603000725057     -0.73592067980545     -2.33256974339586
  F           2.71210684213580     -0.73906808940175      3.20901506286026
  F           1.47327758540732      0.93746897719975      2.63144599112034
  H           0.72119402214104     -0.82719156042091      3.14500410649513
