16
Coordinates from ORCA-job NEB E -37.134143516170
  C          -2.18623945887386     -3.32244346893627      0.79175020456379
  C          -0.25530487466258      0.76379581451738      2.57169957883744
  Cl         -1.58093332698015     -1.93266838811962      0.17976895738025
  H          -1.69947695934102     -4.17648117802344      0.26277591911495
  Cl          0.34188749623007     -0.83200744170469      2.84776956748355
  C          -0.24213345788841      0.87338037565703     -0.99361250073989
  C           1.00365864731701      0.79534526582052     -0.54172539940992
  C           1.42790052823474      1.07332230587352      0.85437892355789
  O           0.31604229338177      1.44748081338549      1.68782367980166
  N          -0.53863379992738      0.58493997361567     -2.36983144769140
  H          -1.10263158227035      1.15648528527593     -0.40682504235208
  H           1.79187308787525      0.50752867325507     -1.22741947570233
  H           2.11983473577604      1.92373333671788      0.86743506991006
  H           1.92581174919456      0.19262846801266      1.27887367948411
  O           0.37405010075776      0.25213609802827     -3.09370050529791
  O          -1.69570517882344      0.69282406662462     -2.70916120894016
