16
Coordinates from ORCA-job NEB_product E -37.342505856950
  C           2.11045376590442      0.56907804410667     -2.07366257937050
  C           0.90319945380980     -0.14746320452148     -2.64256279886039
  Cl          1.75966887315569      0.79362781193062     -0.32955187131367
  H           3.00754380117385     -0.04910363723900     -2.15190711482336
  Cl          0.89781981725794     -1.84130170103196     -2.24712002690179
  C           2.30251783714072      1.93657580977081     -2.72162774959494
  C           3.48634428304871      2.67171271930693     -2.15947876790275
  C           3.46165871890748      3.95500294134090     -1.85422283708712
  O           0.02426013142648      0.35907929952886     -3.25642044141406
  N           2.56307837066889      1.74599185380986     -4.19039157742035
  H           1.39606781446479      2.54412265824454     -2.64159137112841
  H           4.38322523561115      2.07981272982271     -2.04287786395215
  H           2.57485655082643      4.55350150625191     -1.97707936590229
  H           4.33121155223818      4.45581992688658     -1.46712282200952
  O           2.94598131440681      0.65889201564611     -4.54106608257863
  O           2.39931247995866      2.70525122614594     -4.89031672974007
