18
Coordinates from ORCA-job NEB E -42.878481592620
  C           0.86312903548306      0.11436378244598     -0.90976021704007
  C          -0.44173115081940     -0.41667521058475     -1.09533986443014
  F           1.89914535399782     -0.74113142146841     -1.02782256851887
  H           1.11139816701184      1.04751348475083     -1.41743521893030
  C          -1.51433186038749      0.60584362008742     -1.46055998664521
  C           0.92668580660774      0.48419188991032      0.91331664895990
  C           0.57520997912030     -0.78205393451462      1.44594232360596
  C          -0.70760592710351     -1.29730382547572      1.22683681372176
  O          -0.79249181771409     -1.48405615694110     -0.49029181071066
  O           2.20240783527289      0.89678595649150      1.16057336061261
  H           0.17282035465902      1.27078007207633      0.96714593897349
  H           1.39655283003326     -1.45091818559084      1.65586619396243
  H          -1.55540272490541     -0.63090522228654      1.33528315631280
  H          -0.90105374251685     -2.30919550248765      1.55161832386607
  F          -2.69075709436159      0.04724894038095     -1.71821480283185
  F          -1.72948406347928      1.50776524279480     -0.46357020273177
  F          -1.16344457816114      1.33903194798724     -2.52818108584837
  H           2.34895359726285      1.79871452242427      0.85459299767223
