18
Coordinates from ORCA-job NEB_product E -42.902528771810
  C           1.93601543515954      1.01789045961787      1.57684083859976
  C           0.77383864218324      1.90142118441736      1.17042417885906
  F           1.51812773511216     -0.27790502687721      1.68541743374502
  H           2.74526149636989      1.04538698197588      0.83892821564881
  C           1.17615096461240      3.20518915769345      0.41220725447349
  C           2.43013336071215      1.50359262093247      2.96769909408103
  C           3.76417984656781      0.89000474803665      3.27895424413865
  C           3.92985859168269     -0.10624551978012      4.12776791036372
  O          -0.37367518249886      1.67685128534656      1.40143723074871
  O           2.47645639987242      2.90953852897232      2.88927649834671
  H           1.67444118708366      1.17568899848507      3.69945642806095
  H           4.59325836702259      1.32763985224747      2.73965583033646
  H           3.09908244974267     -0.54469179873630      4.65510000162777
  H           4.90009019643983     -0.52985494337767      4.31923777381175
  F           0.81372715780500      4.29645229689070      1.08164445930358
  F           2.48508584646995      3.29645648784764      0.15685465445839
  F           0.55425496641619      3.23945602750021     -0.77545671631360
  H           2.90181253924667      3.26072865880764      3.67985466970973
