20
Coordinates from ORCA-job NEB E -32.911159800860
  C          -2.24861068017319     -0.76417407563010     -2.75562788328238
  C          -2.20691023428277     -0.02374588694815     -1.65304860722690
  F          -2.58134893718490     -2.06447870934847     -2.71728773690254
  H          -2.04116624912231     -0.40018869354032     -3.74770297101051
  Br         -1.67821017199258      1.80519111755185     -1.90308808763484
  C           0.64536974646290      0.37242698261032      0.55919582006500
  C          -0.39525231332713     -0.44350793127280      0.60337756912942
  C          -1.81594451155989      0.02303417332730      0.68407512232870
  O          -2.58469703473664     -0.41191907377926     -0.44233066337759
  C           2.06877617336742     -0.06697115626389      0.46275558430404
  H           0.49439893853382      1.44375459830359      0.61185696563189
  H          -0.26830294328211     -1.51600531201053      0.54003605400985
  H          -1.86332280831723      1.11670087616353      0.76007112780479
  H          -2.33319657434658     -0.42181621977146      1.53802211016509
  C           2.89897706266004      0.44870260321317      1.65224341594140
  H           2.48201057982799      0.32583540593885     -0.46939573078111
  H           2.11239189387072     -1.15547166224799      0.41118583656878
  H           3.69800079018209      1.10625292987267      1.32166577398813
  H           3.34522570643535     -0.37751870934659      2.19818853292378
  H           2.27181156698497      1.00389874317831      2.34580776735498
