20
Coordinates from ORCA-job NEB_product E -32.932477083650
  C           3.49913749749336      0.25205117340918      1.43216113960113
  C           2.04668648944054      0.51011994385644      1.14506671059781
  F           3.98735921235782     -0.53142127538773      0.41925952983451
  H           4.06212879128286      1.19484100918632      1.40952428241415
  Br          1.38088852726617      1.99383904698859      2.24898007894200
  C           3.64533554027847     -0.43659605568388      2.80869285920989
  C           2.98390762218019     -1.78518897333909      2.77193571051403
  C           2.07912602337884     -2.17584737360818      3.64838415797568
  O           1.31433225666287     -0.04161560650585      0.40983310709979
  C           5.11604330041580     -0.51249766508887      3.26140263525807
  H           3.12483666743022      0.19919831337572      3.53369309051629
  H           3.28975616775499     -2.43180658176707      1.96220603272723
  H           1.75579129729897     -1.53914389815529      4.45645238803825
  H           1.62591479789676     -3.15044842095241      3.59860297451726
  C           5.99643196141015     -1.46492386679783      2.46166823910537
  H           5.11029599817551     -0.83100865432992      4.30613974654458
  H           5.53984564196426      0.49426829780234      3.22497990724531
  H           5.63679543528187     -2.48661044921982      2.54749268816526
  H           7.01141947323568     -1.42943709663129      2.85068093240571
  H           6.02656729879467     -1.19437186715136      1.41064378928767
