21
Coordinates from ORCA-job NEB_reactant E -51.294303907210
  C           1.74225757566168      0.11475644565530      0.18126418624881
  C           1.40577074136591      1.39144699873572      0.39007859225956
  C           2.08171541945866     -0.95502437036063      1.17197903451882
  H           1.75195096651861     -0.19741119754246     -0.85353661348812
  N           1.07925584667726      2.18960413846419     -0.83769814933054
  C           3.91527950787927      1.47573748629016      3.84958777784373
  C           3.20191968169740      1.96294688627374      2.84343108193170
  C           1.71585767600391      1.87988567145645      2.73375036584373
  O           1.25185218050117      2.19426780087618      1.43115121480745
  N           5.34440730544952      1.61823586387610      3.87206422907855
  H           3.51954514691651      0.93903324340805      4.69742318304744
  H           3.71903663320063      2.47791398657442      2.04146147512643
  H           1.26630520431284      2.65907726786205      3.36079698258328
  H           1.33817148356841      0.91305728543989      3.07789016541957
  F           3.22616954543138     -0.68279166592959      1.85429754511975
  F           1.11879196279338     -1.09210110952146      2.12461752134668
  H           2.20868449199460     -1.93321785000201      0.68854056216496
  O           0.88793840263949      3.36137561209381     -0.67198160789850
  O           1.03585035547969      1.59575572540724     -1.88454569185400
  O           5.87573185455090      2.20523969274005      2.95679367704328
  O           5.91810801789879      1.13341208820281      4.82053446818742
