26
Coordinates from ORCA-job NEB_reactant E -46.382820978490
  C           1.09753284084078      0.15180029533568     -0.31237351285028
  C           1.37712854916963      1.26162655081217      0.39628294760234
  C           1.60825006502956     -1.15439959071976      0.11963206201020
  H           0.50391270129615      0.19840953084000     -1.20871388361858
  C           0.92163127243581      2.61528171683668     -0.05989630978127
  C           4.66383151941750      1.77491726103859      3.51990743960270
  C           3.36272983775552      1.56669414477294      3.41821831771919
  C           2.51069964000636      2.16016215646861      2.33868881019854
  O           2.12426916043269      1.08182110051294      1.49899612003511
  C           5.53613614540701      1.17223686617710      4.57181052011909
  H           5.19180758634907      2.41767625283948      2.82862142218572
  H           2.85547543158686      0.90185741680527      4.10173940806598
  H           3.07456995654328      2.90699521930304      1.76822912651342
  H           1.62048248762954      2.62883027602266      2.77931858581070
  Br          1.07483268504147     -2.57146851909329     -1.09464351956333
  Br          3.58547259664063     -1.17083835772252      0.22253632428112
  Br          0.97119653812760     -1.64055529442866      1.92771633675654
  C           1.94917045830666      3.23886323906880     -1.00975661402822
  H           0.76117436832507      3.27189698784409      0.79608636167440
  H          -0.02812577146475      2.50438205774537     -0.58443414833281
  H           2.91852565407811      3.34690419064593     -0.52847192659352
  H           1.61121927837956      4.22142652260812     -1.32844699575931
  H           2.07600962031241      2.61225689995274     -1.88899767804989
  F           4.81639150048366      0.47232925153502      5.50269576110425
  H           6.08774847566550      1.94969892830956      5.11538861477946
  H           6.24952740220431      0.46909489648944      4.12316643011843
