14
Coordinates from ORCA-job NEB E -28.920547433440
  C          -0.88084819752062     -0.82852491032662      0.32488405759293
  C           0.37769853908764     -1.15404547126479      0.92447276666943
  I          -1.07340184740916     -1.84992376119095     -1.62485172609451
  H          -1.73743342713736     -1.17013334022975      0.89949239441718
  I           0.49671170438530     -1.70989310366525      2.95246625433253
  C          -0.93372529108863      0.73141039741660      0.11332560300757
  C           0.27299568203955      1.17867211511700     -0.52137239265679
  C           1.49015793544633      0.34143564657945     -0.50235179898367
  O           1.52801449255903     -0.72395994978923      0.41709481440007
  Br         -2.61374126702664      1.27297699296648     -0.96497223363392
  H          -1.19075943847723      1.15953051786619      1.08171248727756
  H           0.21197081767078      1.86085326715430     -1.35306860389901
  H           2.36793743566768      0.94093554074732     -0.23160918429445
  H           1.68442286180333     -0.04933394138075     -1.51522243813492
