14
Coordinates from ORCA-job NEB_reactant E -28.970380729980
  C           1.00685802182362      0.38780327973269     -0.55810819841746
  C           2.15768033004820      0.96749147471274     -0.86010803741073
  I          -0.44604765411410      1.42974722552166      0.54263583918006
  H           0.75669592930437     -0.62024943821057     -0.82538870530663
  I           3.55790746319000     -0.17349628097345     -2.00820120690308
  C           1.35685471937747      3.39690617181843     -2.69937930887152
  C           2.65797624668467      3.45977311849885     -2.47738417258460
  C           3.30925394685344      3.02278628465724     -1.19818456973803
  O           2.51553545794075      2.16669702809848     -0.40305966603397
  Br          0.57720777223380      3.94238428724589     -4.32864383415105
  H           0.63329252701540      3.04415533749154     -1.98136441456136
  H           3.33583666435921      3.83931261943600     -3.22771040918904
  H           3.50637952878798      3.89054075763405     -0.55952545735552
  H           4.27086904649519      2.54114813433645     -1.42557785865706
