17
Coordinates from ORCA-job NEB E -36.833273692510
  C           0.41130565672798      0.17741872781734      0.85082460074739
  C          -0.93276261074177     -0.16080639163876      0.81983517012110
  Br          0.50901983345377      2.42560163463443      0.04757080485873
  H           0.84788463389896      0.36875047879329      1.82208511246341
  N          -1.76173929272428     -0.12169843775681      1.96525815887962
  C           1.31502702631086     -0.54442263801976     -0.16975374148951
  C           0.55548462126793     -0.62502606970846     -1.44908493483202
  C          -0.82750326629263     -0.18153906348549     -1.47869968914624
  O          -1.59591339038784     -0.35861527210226     -0.34295823467670
  O           2.58554149263260     -0.00057622623252     -0.32135714193824
  H           1.50046095788996     -1.54789848418019      0.24547929520974
  H           1.12173370126449     -0.54734846870763     -2.36402423524311
  H          -1.41063973641064     -0.52056463595811     -2.33600455062884
  H          -0.67341900768255      0.93689139687595     -1.57630267335270
  O          -2.94738248700074     -0.33534167387837      1.80921206825460
  O          -1.21363391024398      0.09815086980410      3.03437899442014
  H           2.51653577803788      0.93702425374322     -0.55645900364737
