17
Coordinates from ORCA-job NEB_product E -36.868714546730
  C           3.01181589589031     -1.15332181445826     -0.22665254238140
  C           1.53189382666442     -1.18298249956121     -0.17059389364461
  Br          3.59120795611754      0.67048208242537     -0.61351267959919
  H           3.45643829637199     -1.43940289724383      0.72957403502234
  N           0.99361400234108     -2.48569811563556      0.48335425883077
  C           3.56220661557920     -2.12792516382162     -1.33459519181519
  C           2.86067714175698     -1.85035725971557     -2.63585993436054
  C           1.89024034538130     -2.60233843316810     -3.11805108013000
  O           0.73090197188962     -0.41013412127192     -0.56871947754822
  O           4.94223887381090     -2.03174532916708     -1.41426964218986
  H           3.35497357530154     -3.14670464182745     -0.98581712697953
  H           3.20053894456526     -0.96795157444128     -3.16241003280726
  H           1.54593036873832     -3.48856401951592     -2.60950088208192
  H           1.40281469466021     -2.36631008138696     -4.04729217592418
  O          -0.19760594625932     -2.60904626096404      0.47651037245576
  O           1.81394334889345     -3.25481059965433      0.92541079424751
  H           5.19297008829717     -1.18958927059226     -1.82177480109449
