17
Coordinates from ORCA-job NEB_reactant E -36.877929132680
  C           2.13652062441456     -0.45566527189892     -0.01760951260401
  C           1.46361865124660     -1.57233646186420     -0.31290438328413
  Br          2.96134705845774      0.75147178906359     -1.18644835912182
  H           2.22426019341415     -0.17232771770556      1.02060493743609
  N           0.91484882235397     -2.31229582968250      0.84558171474806
  C           3.87439476215365     -2.97638241471545     -1.86912604382826
  C           3.25136566379403     -2.11414876142961     -2.66281530903398
  C           1.76288168809735     -1.92593495488961     -2.66911526324870
  O           1.14807680739485     -2.23250752854762     -1.42249865316633
  O           5.20403831911942     -3.17462547712445     -1.80673655986056
  H           3.34836698314762     -3.61517248438297     -1.17283003129839
  H           3.80319375478919     -1.49418356002010     -3.35457121345997
  H           1.28147496786516     -2.62347219288537     -3.36312621037332
  H           1.50869657200286     -0.90650093800311     -2.97878172915280
  O           0.45919181428219     -3.40136246645346      0.61881192858696
  O           0.96809568359731     -1.77417114322991      1.92750288239254
  H           5.65952763386936     -2.60678458623074     -2.44233819473136
