25
Coordinates from ORCA-job NEB E -36.823480272000
  C           0.46989479382213     -0.12711710133133      1.11253778396659
  C          -0.69861863682515     -0.74130402184253      1.72123692705270
  O           0.61151254258273      1.23502312966096      1.02073307908793
  H           1.41601981891799     -0.51552594014555      1.50032780443654
  C          -0.44779287647643     -1.95996582684090      2.39785587581100
  C           0.38054971090045     -0.82038323090770     -0.51025130445842
  C          -0.91668123979568     -0.46584858013841     -0.98491036961092
  C          -2.03341373354407     -1.03164144692857     -0.33580199571093
  O          -1.87644766194144     -0.47823573932141      1.24434129682680
  C           1.61334524983861     -0.36383226076574     -1.28213364460763
  H           0.47596268927667     -1.88078026570419     -0.26800793719325
  H          -1.04224126786046      0.46724245172273     -1.51206594507712
  H          -2.01436925458353     -2.09949813493017     -0.14168893636936
  H          -3.01453845644830     -0.66801681613631     -0.61290839091266
  C          -0.55193372339668      2.02898017316467      1.10905066470820
  H          -0.20832169081629      3.05983739565042      1.03924320995981
  H          -1.05993341290890      1.87143930915523      2.06502027822469
  H          -1.25456295246654      1.81619390561603      0.29918118416149
  N          -0.20326859970254     -2.92632556296831      2.97173743367078
  C           1.52956562650634      1.01859189806134     -1.91671838249769
  H           1.78413166051542     -1.10577303983674     -2.06772471294950
  H           2.47626966067711     -0.39689017191404     -0.61428633743564
  H           0.76637479017719      1.05153489127742     -2.69032153460493
  H           2.48431553192324      1.25959280533940     -2.37825401297934
  H           1.31418143162812      1.77270218006370     -1.16619203349915
