25
Coordinates from ORCA-job NEB_product E -36.845131460980
  C           2.30446120699893     -0.35794611326839     -1.66571183289279
  C           3.04154070854561     -1.38647494772576     -0.80118090956537
  O           1.06799802256367     -0.17142219303265     -0.99268999994600
  H           2.88442515980921      0.57588440996332     -1.65408961134308
  C           3.19058299193006     -0.86862350555733      0.54844482799819
  C           2.09244665038898     -0.83251481886629     -3.11608729848167
  C           1.28172959823724      0.19377549708975     -3.85261876210568
  C           0.04327677558871      0.00037616308417     -4.26391252917103
  O           3.41680251917039     -2.47450062837856     -1.14145155920924
  C           3.41318583872437     -1.12380760794380     -3.85279959906553
  H           1.51614206651235     -1.76178736236639     -3.06444603160830
  H           1.77845369170553      1.13701684198246     -4.04118418123137
  H          -0.47321331286162     -0.92769084339006     -4.08406261654516
  H          -0.50818796104433      0.75942259553142     -4.79281848207694
  C           0.70120386919524      1.16396134528723     -0.74198655895982
  H           0.60814741285867      1.73361624655453     -1.67199361143271
  H           1.42005557989711      1.65793836246993     -0.07824707722305
  H          -0.26722783635905      1.11618633523992     -0.24845565071693
  N           3.33657993488395     -0.38556561944808      1.57606372328157
  C           4.45768465796127     -0.01419503222495     -3.78221592126288
  H           3.16102520193389     -1.30827343621226     -4.89968839428027
  H           3.84581445218866     -2.04063435208903     -3.45169189759869
  H           4.04957577474699      0.94148803328075     -4.10233502518234
  H           5.28890736540410     -0.25880586895063     -4.43935507250218
  H           4.85478963102009      0.09447649897072     -2.77488592887871
