25
Coordinates from ORCA-job NEB_reactant E -36.854493476610
  C           1.15759850244962     -0.12578856437801     -0.04583308962695
  C           1.15955371598393     -1.41118363450698     -0.45055038470616
  O           0.89445436183102      0.95486546968219     -0.83072464387580
  H           1.38966127995675      0.07495292838769      0.99381448538914
  C           1.44156355787653     -2.37100886606664      0.55641372005399
  C           2.87351723311840     -1.03228779985536     -4.32815219171921
  C           2.26743090673576     -0.68716627680479     -3.20505549712117
  C           0.89166575154962     -1.14068136333005     -2.81801985548532
  O           0.89994538006158     -1.97078788262193     -1.66449810703030
  C           4.23928001490846     -0.58202766426048     -4.73429247769057
  H           2.36388894262358     -1.66716577208164     -5.04207340570414
  H           2.76826095109291     -0.05524669349925     -2.48395272712938
  H           0.46456062731467     -1.77545323777167     -3.59838700100503
  H           0.24025551925213     -0.27432962987145     -2.65539543465903
  C           1.14524386150546      2.20686628596358     -0.23651320067105
  H           0.84675102457177      2.95565244161072     -0.96773580429936
  H           2.20750451911082      2.32986094924624     -0.00165726034874
  H           0.55861016791777      2.33501086741418      0.67861250652606
  N           1.67719455294049     -3.13019797524864      1.38270203953523
  C           4.19580130164832      0.18651215241185     -6.05481514280664
  H           4.87950398171576     -1.46048185599746     -4.85607855659991
  H           4.67184404748358      0.04691506346441     -3.95412896682025
  H           3.78377324124996     -0.43659796998464     -6.84537644655993
  H           5.19615008500532      0.49717309936788     -6.34659861738204
  H           3.57258647209581      1.07249592873024     -5.95600394026343
