21
Coordinates from ORCA-job NEB_reactant E -54.990073003590
  C           2.34018208754110      0.46660006162447      0.33531291489111
  C           1.54882613313510      1.50905787285851      0.63131784932128
  C           2.66947574029002     -0.60041415789288      1.18781045170336
  H           2.78636787611290      0.40875604872238     -0.64763433872015
  C           1.31453246423506      2.60464357773446     -0.39996229390771
  C           3.23379099707688      1.98913605994907      3.31754047591514
  C           2.32475492624139      1.05865560706876      3.55808878705105
  C           0.98563120869742      0.99744092569711      2.89119296771865
  O           0.87422123329676      1.82302273625078      1.74646638229957
  C           4.56681290608438      2.01457372719144      3.99697166035062
  H           3.09490836389703      2.79776122821103      2.61449358091630
  H           2.50963654069295      0.27432444272170      4.27819268522949
  H           0.22125621663639      1.37847035798828      3.57739115522317
  H           0.73941834215146     -0.04086517191362      2.64149434888318
  N           2.96731209737001     -1.49434767754287      1.84217832375671
  F           0.01388912615452      2.82892563559703     -0.59971274281235
  F           1.85717743350701      3.76112492778555      0.00476875363919
  F           1.85164588285108      2.31783719330864     -1.58862117078108
  F           5.56881161248519      1.82863708630030      3.11942520822701
  F           4.79991452338675      3.19781452948121      4.58797299866728
  F           4.70233428815660      1.07854498885866      4.94201200242818
