20
Coordinates from ORCA-job NEB E -47.570338614100
  C           0.80576586554174     -0.36684090177419      0.04932222012954
  C           0.09742949372890     -1.40067315153647     -0.72276984854089
  C           0.70748082834707     -0.56591077007321      1.58346633714517
  H           1.86809818195116     -0.35484905363612     -0.21668041252374
  C           0.81553621537126     -2.23100223126984     -1.57756976272724
  C           0.15147163163898      1.00871014610029     -0.46646077760440
  C          -1.27013094864183      0.95958056341539     -0.16279222511815
  C          -1.99566878743669     -0.23583880598065     -0.56653808661285
  O          -1.23419717381942     -1.44011921773273     -0.74685838273488
  N           0.86040305403966      2.21646981734959      0.06763062508985
  H           0.38490344910828      1.03278375929330     -1.54020370242645
  H          -1.70709148218734      1.65481457211301      0.52959364921973
  H          -2.45044477473943     -0.11505564813417     -1.56067218720978
  H          -2.80737556371810     -0.47571523385299      0.12812061382950
  Br         -0.53914262433418     -1.98884371823185      2.10863910642790
  Br          2.47137850426244     -1.09147518356733      2.26327453460582
  Br          0.13002345481901      1.00156510242554      2.63343507600973
  N           1.45441934472339     -2.91784892312862     -2.24712594949328
  O           2.03315126075821      2.07975584825066      0.30727624756536
  O           0.22399007058690      3.23049302997039      0.13691292496905
