20
Coordinates from ORCA-job NEB_product E -47.607286565560
  C           1.92867155559165      2.00890538290019     -1.21377921854862
  C           1.44580692699986      0.80192871198714     -2.02972603057779
  C           2.28721479076517      1.67611559592142      0.22896349993155
  H           2.85390367110734      2.35847213830926     -1.71225184926988
  C           1.87420910457925     -0.52409970403793     -1.62403572708895
  C           0.90726411631793      3.14973362089843     -1.40987979716926
  C          -0.27396592054458      3.16109463928181     -0.48552015238478
  C          -1.45036453939302      2.67171039055581     -0.83230180065283
  O           0.75179320536390      0.92835514383213     -3.00267136240254
  N           1.60510133096332      4.48208387639812     -1.39635335269678
  H           0.54115731661757      3.04460559679229     -2.44401628194702
  H          -0.12669250760773      3.61913398696480      0.48172721951181
  H          -1.62549700144595      2.22841899953353     -1.79922101998243
  H          -2.28178745098064      2.68331027699303     -0.15111623352570
  Br          0.88854880619691      0.61601466535285      1.10402907204182
  Br          3.97199560000836      0.66374916747162      0.29003042568007
  Br          2.59173821178591      3.28849973344852      1.29865105967155
  N           2.15133436482356     -1.61846624250503     -1.43734135482729
  O           2.74654329546913      4.50140389423662     -1.78722012424505
  O           0.95382512338207      5.42543012566539     -1.04776697151789
