20
Coordinates from ORCA-job NEB_reactant E -47.608074302840
  C           2.08320960443269      0.65869062441531     -0.08003227527698
  C           1.57196081355713      0.66124950804942     -1.32556931368115
  C           1.39009644174419      0.88164157699755      1.20259052553265
  H           3.14097307209530      0.44468851508247      0.00547070111118
  C           2.47054719062170      0.28771767140964     -2.37739165961786
  C           0.46054685781298      4.50574168742372     -1.49385029344845
  C           0.48575232721063      3.28549859306404     -2.01276885211906
  C          -0.31685908108529      2.13467124730755     -1.50403401155028
  O           0.30721846111810      0.88688386660094     -1.76079888565283
  N           1.25680788973729      5.56328018795030     -2.05726767212338
  H          -0.13350677391061      4.81503781195045     -0.64778736276463
  H           1.12414543542439      3.09072472908800     -2.86819110837209
  H          -1.25563046318332      2.06831567752318     -2.06603544748452
  H          -0.56813559857666      2.27515462906952     -0.44750654007338
  Br         -0.41174178900390      0.11197805168628      1.24867766006502
  Br          2.40628346577975      0.06381849566064      2.66470002947820
  Br          1.25680679513594      2.84116156545686      1.62242807969096
  N           3.17522804511661     -0.00507519691571     -3.22914380635862
  O           1.99308122566354      5.29303581151018     -2.97888784747001
  O           1.12971608030954      6.65638494666967     -1.55630191988475
