25
Coordinates from ORCA-job NEB_product E -31.748411055490
  C           2.24332333297266      1.65276309969072     -1.30055406459231
  C           1.09179542266243      1.30116953255851     -2.23630823305069
  C           1.86870592993929      1.10187520321305      0.08908789207128
  H           3.15784043189370      1.16115661358126     -1.64793580327310
  N           1.30529217974860      0.19864918038077     -2.99561799910200
  C           2.44573545599631      3.17956755520066     -1.31714103580217
  C           3.49797638824690      3.62202631556069     -0.34856677182696
  C           3.28448819544716      4.43865080074109      0.66608850617910
  O           0.05228198628550      1.91783224154293     -2.28776684326876
  C           2.84409005180978      3.63672128771398     -2.72435513864701
  H           1.48822035631786      3.64022413392265     -1.05718550795718
  H           4.49611062632321      3.25385866089640     -0.55390768758566
  H           2.30255768859814      4.82645967196123      0.88226450269389
  H           4.07554696659852      4.75340674467082      1.32635175418067
  C           3.07726053868211      0.73523494577932      0.94133848547299
  H           1.25162488319021      0.20805480820019     -0.04124654541753
  H           1.26011331827274      1.84276892464853      0.60841748232205
  H           3.68973360691690     -0.01203835141943      0.43992828136434
  H           2.74905129647184      0.32250422997967      1.89254918449628
  H           3.68918264484117      1.60999868298864      1.14011897323780
  H           0.56652814781709     -0.12557403200484     -3.59796872917757
  H           2.15099959185826     -0.33901679859170     -2.94104688143309
  H           2.06367837368951      3.38682833545705     -3.43855357739245
  H           3.77137681039625      3.15817280041918     -3.03608875594246
  H           2.99178577502387      4.71410541290864     -2.73860148754945
