25
Coordinates from ORCA-job NEB_reactant E -31.712862889340
  C           1.80310697823425      0.07733233197872     -0.20870482848834
  C           1.50837220474247      1.01566010289364     -1.10877573692768
  C           1.81449102173139      0.29290800467180      1.27272258443101
  H           2.06664304043801     -0.91040296182224     -0.55714128159340
  N           1.57892800515950      0.81528861456280     -2.49091262730470
  C           2.82332044736649      4.76968411983423     -2.46414359941670
  C           2.84555425244789      3.57175113486502     -1.90438570801355
  C           2.17181031535759      3.23538098034335     -0.60846980796110
  O           1.11580038520173      2.28903094515640     -0.75978575892852
  C           3.48576299922412      5.11405250007523     -3.75554888955717
  H           2.30948658925567      5.58617418814454     -1.97170949196012
  H           3.34578146763636      2.74484028510233     -2.39050171115756
  H           1.69252115711532      4.11901808551512     -0.17951632175447
  H           2.91315081172296      2.84493599240399      0.10349052995329
  C           3.21957693519700      0.13395625135783      1.85620616833509
  H           1.15341618850027     -0.43895318970237      1.74709530646886
  H           1.42721673362482      1.28780621251556      1.49717133131190
  H           3.60340933277917     -0.86359246820977      1.65302193267398
  H           3.20472861030778      0.28574058213038      2.93336778242762
  H           3.90253909363581      0.85690881523104      1.41436827117069
  H           0.97570947802143      1.44040348265572     -3.00685095170648
  H           1.48559872628115     -0.14713267593350     -2.77850978631530
  H           3.97070755393846      4.24351681187998     -4.18967924091836
  H           4.23212379086034      5.89276147205980     -3.59936965216755
  H           2.75214388122002      5.50013038229037     -4.46283851260146
