26
Coordinates from ORCA-job P E -31.096832788350
  C          -1.73444621493873      0.25918346744367     -2.11846722233452
  C          -0.05430810525090     -1.62594054544272     -1.04297296152192
  C          -1.45565110643762     -2.02905573311500     -1.36428041610807
  C          -2.26365807429078     -1.12796843638672     -1.89948786206990
  C          -1.07270766321957      0.71565565779653     -0.80923882506074
  C          -0.03606259014246     -0.28539186571097     -0.26168973160946
  H          -1.76930201520398     -3.03979545609339     -1.15358982496595
  H          -3.29459211604821     -1.32374178544261     -2.14181700723788
  N          -2.80578935310519      1.17297139059568     -2.48237998479218
  H           0.46231254409092     -2.39414932537603     -0.46508165736904
  H          -0.95684013355398      0.22033251241729     -2.91144232657272
  H           0.49099884217397     -1.48439950802379     -1.98104990549021
  H          -1.87177929566550      0.85009679596610     -0.07978007273012
  H          -0.30347841619989     -0.51233504865830      0.77652515206120
  H          -0.58766745549151      1.68301802598212     -0.94668821990676
  N           1.27708161420041      0.34031321472612     -0.18423617062501
  C          -3.19811375494696      1.07305219978276     -3.87210888757984
  H          -2.51921491755275      2.12645369258877     -2.28071844027504
  H          -3.57185798986131      0.06833546756557     -4.06651228573138
  H          -2.37191280573057      1.27008220649825     -4.57502281423605
  H          -3.99918210887300      1.78443308008843     -4.06565300801232
  C           1.94505501018322      0.64269391114213     -1.43410762043950
  H           1.89028204366712     -0.22711934464578      0.39173742521967
  H           1.27242356616370      1.20500617869829     -2.07887883820918
  H           2.29819403283734     -0.23934072788759     -1.98791486600826
  H           2.80912646319623      1.26901997549122     -1.21170362839483
