16
Coordinates from ORCA-job P E -25.282773166620
  C          -1.36564981020820      0.62822341446859     -2.19063912827808
  C          -0.36978495663357     -1.66609568465526     -0.59628156287732
  C          -1.22118113163862     -1.80977327713865     -1.81907788005674
  C          -1.66279077993079     -0.78693853290580     -2.53434292491224
  C          -0.83411261916269      0.78662981182209     -0.77500099304188
  C           0.22584320416613     -0.26852427532126     -0.48998158088686
  H          -1.45579145052609     -2.82114625160107     -2.11708057861430
  H          -2.24273632324965     -0.95353981262251     -3.43049487443015
  I          -3.16779994459465      1.85009862851382     -2.42221178026204
  H          -0.97588270311350     -1.86065896175485      0.29554017179988
  H          -0.67271955472565      1.05380403837504     -2.91920453511401
  H           0.42670528056774     -2.41337421967789     -0.61467676843808
  H          -1.64236571456227      0.64133838429383     -0.05370627748796
  H           0.67581500659481     -0.10657711029725      0.49245138502266
  H          -0.42506184922740      1.78868568068649     -0.63326949700757
  Cl          1.57224334624439     -0.10202183218531     -1.66865317541529
