16
Coordinates from ORCA-job R E -25.185818261460
  C          -1.28270678475792     -0.08212125566808     -2.78639421734217
  C           0.04776845766184     -2.65876920965698     -1.98789433669922
  C          -1.24946596847574     -2.38295203839447     -1.89725742001266
  C          -1.88697769349852     -1.11716587876746     -2.21555650239665
  C          -0.74542450605429      2.01634084788821      0.18003628766422
  C          -0.32972266790288      0.76796782395790      0.23665058767178
  H          -1.92812494361585     -3.15021859017390     -1.54614759427775
  H          -2.93576125738287     -1.04681358242537     -1.95973425767702
  I          -2.27088657971977      1.72348279460403     -3.19683803442969
  H           0.43136218558709     -3.62878347611869     -1.72096614412155
  H          -0.25022165797270     -0.07237709689147     -3.08402326188689
  H           0.77510800285676     -1.93622728633693     -2.31412527660492
  H          -1.73736559271646      2.27664097043497      0.50358284762115
  H          -0.92412481079378     -0.05543542011361      0.60071850802801
  H          -0.12581103041809      2.81221135147816     -0.19434119422048
  Cl          1.24256484720319      0.28737004618369     -0.27021999131615
