16
Coordinates from ORCA-job TS E -25.168936186000
  C          -0.56307860306498      0.72787688876668     -1.24593956086824
  C           0.77056731605604     -1.47432574984197     -0.04730298149545
  C          -0.55708339910552     -1.50165441758852     -0.32849424296671
  C          -1.21831015781593     -0.42925498013956     -0.96106406379434
  C           0.04212218693556      1.30728612907644      0.83021728985579
  C           0.85800942938337      0.35570259624357      1.35004768205002
  H          -1.17802225727594     -2.27969533245907      0.09368093600818
  H          -2.29711955566767     -0.46100622053979     -1.01355305244775
  I          -1.61192224967685      2.38254289154216     -2.03458242017460
  H           1.21712985675490     -2.25984027499212      0.54005355493253
  H           0.48367011353371      0.76839145888456     -1.48453933063305
  H           1.45879081429526     -0.89902108640699     -0.63860830406131
  H          -0.98584120684533      1.34192556466254      1.14511221963225
  H           0.54326565739659     -0.35278893134935      2.09640045927885
  H           0.45615942250751      2.20976058948051      0.41605686916328
  Cl          2.58166263258929      0.56410087466089      1.28251494552056
