26
Coordinates from ORCA-job NEB_reactant E -54.272078695220
  C           2.00206611452654      0.06134008061469     -0.00898063188339
  C           1.56667709094506     -0.32969741821706      1.18545041930174
  C           1.48403133498793     -0.39257152736981     -1.33520193948049
  H           2.81164455110966      0.77329070226744     -0.05002748138761
  C           2.06308531877100      0.26782935875068      2.48381801641302
  C           2.15576451484336     -4.18681275936828      2.28937267747682
  C           2.03547212861010     -3.14171551028948      1.48737225498026
  C           0.72343672408607     -2.57663945834164      1.04436885092801
  O           0.54755829647287     -1.21927072030246      1.43300713706083
  C           3.42952672789463     -4.75766948855329      2.77539511544592
  H           1.28248455780474     -4.70132558046960      2.67160892898646
  H           2.90613593729236     -2.61874122127949      1.11334911461318
  H          -0.11299828417444     -3.09988825162606      1.51278453569433
  H           0.64680053968603     -2.68458536587137     -0.04605101055550
  C           2.50037857821052     -1.27936334417071     -2.05804521127027
  H           1.30772758789826      0.49951735462224     -1.94112982998505
  H           0.53059868326682     -0.90874289886055     -1.22374810115347
  H           3.44373382315757     -0.75223946618868     -2.17623724545049
  H           2.12842768410825     -1.54779956253941     -3.04335843476703
  H           2.68939629094144     -2.19405043243220     -1.50063417827695
  Cl          2.56023004353079     -1.01853767298716      3.61551474132441
  Cl          3.42551084887545      1.37264005227817      2.29365317673014
  Cl          0.71016255720895      1.16237590979453      3.23557501498121
  Br          3.51768750383998     -6.66956968047517      2.29918508622922
  Br          5.02289067873286     -3.90431454121902      2.07852788785532
  Br          3.48547016737322     -4.62095855776631      4.74363110618937
