23
Coordinates from ORCA-job NEB E -49.378795088440
  C           0.46158235595769     -0.57628076081373      0.70330453965993
  C          -0.72137997347232     -1.23120821501210      0.30771285842653
  C           0.43316411503045      0.19938477561860      1.99548753289918
  H           1.37847880070254     -1.14532251130618      0.56962934220896
  C          -0.61111782122534     -2.41833123879685     -0.63401724362280
  C           0.52548840654940      0.73028480412067     -0.67453006439960
  C          -0.71580632687780      1.36772662159672     -0.57240552486120
  C          -1.88966601280274      0.58165017791987     -0.79765593762890
  O          -1.84956434244877     -0.57227652142892      0.29775533852665
  C           1.77047012831562      1.57039179102420     -0.47802823369370
  H           0.67572659844595      0.05056847506825     -1.50789953046828
  H          -0.79295669413484      2.24594950516972      0.05149373241984
  H          -1.91282803453411      0.01902601029270     -1.72859006014246
  H          -2.83461860655920      1.07252925826653     -0.59518386142344
  H          -0.49504870267607      0.75421694803184      2.09709772104500
  H           1.27652436222132      0.87529041887600      2.08361565769455
  H           0.49830390992907     -0.51754903112227      2.81301675191135
  F          -1.73605479765177     -3.13211211996647     -0.69110488429343
  F          -0.33657891055043     -2.05377042370180     -1.91778813899702
  F           0.37797877339727     -3.25156186975058     -0.28045978386401
  F           1.61044215862824      2.53724761331165      0.45430378286340
  F           2.82720721549723      0.82555025563268     -0.07665836158181
  H           2.06025339825862      2.06859603696947     -1.41909563267871
