23
Coordinates from ORCA-job NEB_product E -49.410976881260
  C           2.63960372497785      1.08309937679632     -1.04102430446686
  C           1.45642598793480      0.18714102480111     -1.30385334925701
  C           2.60812338657653      1.53670916863114      0.41842640226384
  H           3.56716489351998      0.54076677386533     -1.25016434656997
  C           1.77604451217187     -1.01474194760677     -2.24695366363878
  C           2.53159583584359      2.25149900015892     -2.07035855874118
  C           1.41464824754103      3.19718329485826     -1.73432130917763
  C           0.25350979174812      3.20141815069088     -2.36046440829533
  O           0.34864678852051      0.33413995528243     -0.88154926077887
  C           3.85578007041678      3.01365605515756     -2.18587844987024
  H           2.35979681523824      1.81644246539423     -3.06129403675308
  H           1.61305545653811      3.88247013610714     -0.92312637571531
  H           0.03761888304784      2.52362786189760     -3.17009932837905
  H          -0.53336248993931      3.88056954385424     -2.08424252691978
  H           1.63900947719538      1.96627747425765      0.65693297281639
  H           3.38508015873589      2.26736563851810      0.61536579201964
  H           2.77294445555409      0.67811630726990      1.06534794652010
  F           0.71256488151945     -1.77817409673001     -2.47862118775575
  F           2.23311812427652     -0.59145214992518     -3.43873190764551
  F           2.73138430730286     -1.79413628444906     -1.72028731698054
  F           4.19098045269415      3.65903581567589     -1.04550322219090
  F           4.87950099203517      2.16995073222997     -2.45390509438455
  H           3.81866524655058      3.76543570326435     -2.98999446609963
