19
Coordinates from ORCA-job NEB E -46.642931942260
  C           0.79902362228046     -0.75790392328385      0.54233308974388
  C          -0.56076380484656     -0.76114233216534      0.92498963832251
  Br          2.02958031146801     -0.02612676271523      1.83184510849038
  H           1.21186719501268     -1.66302520255259      0.10504665446659
  C          -1.49083904137044     -1.83382876160962      0.46345418398223
  C           0.75505981449865      0.52038945287374     -0.84096345159152
  C           0.18535219814611      1.64753858961555     -0.23580499163452
  C          -1.13041951577203      1.52740137229060      0.31394246526045
  O          -1.09818046542751      0.34222817809475      1.35696506482558
  N           2.14729494248327      0.65473164141399     -1.28493152745488
  H           0.19198548792837     -0.05983078389759     -1.56964239225644
  H           0.86146594313790      2.39995823713454      0.14842644268659
  H          -1.90090640797782      1.19002093075651     -0.37950588181440
  H          -1.46624661570731      2.36690087346799      0.91299107180574
  Br         -0.74154562825641     -3.61192567133923      0.66906371464684
  Br         -3.15305843824838     -1.70489389152168      1.44829233565463
  Br         -1.96302935573766     -1.61543593268867     -1.50656690696450
  O           2.84437455384977      1.44171541669524     -0.69943912196074
  O           2.47898520453890     -0.05677143056911     -2.20049549620841
