19
Coordinates from ORCA-job NEB_product E -46.683159834610
  C           2.19233272106321      0.55063236195162     -2.13294991211636
  C           1.15286688557728     -0.20982038779871     -2.92269086827597
  Br          1.33712671243949      0.82163110591247     -0.38784747770337
  H           3.10742296140630     -0.01951336831360     -1.96124118065578
  C           1.16611186644209     -1.72251810238059     -2.82082254564756
  C           2.46745481602891      1.91724450191272     -2.74872290331008
  C           3.52477279296696      2.67671933362240     -1.99962889354121
  C           3.37761601614477      3.92976055561910     -1.61435050339904
  O           0.33873532939304      0.33653040294462     -3.61031200741723
  N           2.96129699004577      1.71237064376431     -4.15077110427579
  H           1.54759679885187      2.50749594548212     -2.82334427433040
  H           4.43571898704190      2.12724375305122     -1.80417079552716
  H           2.47648494841250      4.48634136886320     -1.80943236436853
  H           4.15731712445032      4.44549101642761     -1.08287566486332
  Br          1.86637775217787     -2.44926801349619     -1.17836494354356
  Br         -0.62257340119216     -2.40049231852071     -3.11750074015945
  Br          2.33843700411964     -2.27782935826373     -4.30163543687228
  O           3.31745034855649      0.59371930859102     -4.43436200780880
  O           2.98265334607373      2.67356125063110     -4.86437637618410
