21
Coordinates from ORCA-job NEB E -48.747251351100
  C           0.14893738515939      0.38686916967705      1.07090003125450
  C          -0.98191471372161     -0.47123148829470      1.08704833325685
  C          -0.12520865579659      1.78475287090418      1.16587341450836
  H           0.97811452010871      0.07878855152849      1.70649767372718
  C          -0.79421377344182     -1.88722882018130      1.60841650944861
  C           0.72222884347060      0.17136251679138     -0.71127448963296
  C          -0.42849031289271      0.52289893636262     -1.44036380740757
  C          -1.58930594866841     -0.27927762886312     -1.28041671636728
  O          -1.98308203026277     -0.23951683448155      0.30501520881125
  C           1.99885226768931      0.92313235668939     -0.97901358397454
  H           0.94501366926954     -0.89446962299817     -0.64742007334895
  H          -0.55370349554616      1.54980742813091     -1.75393074486641
  H          -1.45697958920210     -1.35086344131498     -1.40704313838840
  H          -2.49142448004198      0.08988998280345     -1.75182797965701
  N          -0.38219785413209      2.89251984576310      1.27659727829243
  F          -0.01920568605258     -2.60614591279397      0.73771076497631
  F          -0.12995193732727     -1.89050850485453      2.78136512671960
  H          -1.74747397995268     -2.41946157839566      1.72851783435063
  Br          2.74392575873668      0.15609510605765     -2.64468215890647
  Br          1.80374910365038      2.83451497036427     -1.26543644960764
  Br          3.34233090895414      0.64807209710547      0.41346696681150
