21
Coordinates from ORCA-job NEB_reactant E -48.789892078610
  C           1.81239131497933      0.37498991823231     -0.57444896046437
  C           1.54149989685969     -0.86915407864292     -1.00143017562156
  C           1.95964597207630      1.53617345663733     -1.34542601831132
  H           1.92087496925386      0.53006424082959      0.49102818829893
  C           1.40419653366505     -1.97896431406252      0.02583390212432
  C           3.45703144823865      0.86995394701197     -4.12249736068369
  C           2.99290021129359     -0.26735421885373     -3.63169615728772
  C           1.53981779667242     -0.52585710839669     -3.37099411151783
  O           1.34767288333011     -1.35743226144484     -2.23769178728650
  C           4.87225147226207      1.17673647061742     -4.41576149718680
  H           2.78925710068272      1.69675918760706     -4.33311140271101
  H           3.64497227570099     -1.09976466369669     -3.40056715639221
  H           1.12412558279303     -1.10963150844923     -4.20033528900284
  H           0.97554028353375      0.40700428915486     -3.27524406990707
  N           2.08637998417160      2.51410040693733     -1.93347578385671
  F           2.57750659626570     -2.17477733469404      0.67231395787433
  F           0.50218355195568     -1.64674148864148      0.97656193282990
  H           1.09721932395276     -2.92716966289775     -0.43788833595080
  Br          5.44458269962015      2.71062860281279     -3.32013549879572
  Br          6.10446668368563     -0.28385141080406     -4.08531205054384
  Br          5.04278341900694      1.68108753074328     -6.31192232560749
