21
Coordinates from ORCA-job NEB_product E -48.782091056500
  C           2.89990304074671     -0.37726492829485     -1.75136670486162
  C           1.67040580798691     -1.27064658781610     -1.66117828866244
  C           2.78009394423250      0.59699340182700     -0.68024209870189
  H           3.78650210374132     -0.99466002854798     -1.54542435207673
  C           1.70022312286691     -2.27619030838071     -0.48820513306070
  C           2.98032121117334      0.28856811229402     -3.14558194760296
  C           2.13251972881851      1.53162257506876     -3.21318067383113
  C           1.07125156544532      1.63705816992737     -3.98930318964444
  O           0.76124952782439     -1.25531424872862     -2.43537252442165
  C           4.41752464409485      0.60391471269876     -3.54419117931226
  H           2.59538912701252     -0.43590069918204     -3.87666779471332
  H           2.44477415402982      2.34807265490945     -2.57586523443142
  H           0.74237355938742      0.82975709444557     -4.62224106121985
  H           0.48421736322265      2.53775318172536     -4.01139428502076
  N           2.65307127901059      1.37099859147523      0.14780456048724
  F           2.22692517365936     -3.43283195835477     -0.95557716035013
  F           2.50115787182309     -1.86453091406643      0.51371639415909
  H           0.69549463431046     -2.48225549422388     -0.09096777721663
  Br          4.43378067427417      1.41899915308475     -5.32052418585313
  Br          5.29855796254289      1.82490901010110     -2.29980800759378
  Br          5.49116350379626     -1.04395148996200     -3.64612935607151
