18
Coordinates from ORCA-job NEB_product E -30.239858570580
  C           0.37982814731649      0.40853317652460      1.82452429345923
  C           1.13757464145185      0.83402070012922      0.59323146811414
  O           1.21423831673721     -0.30854138875608      2.68773326144459
  H          -0.46211250032962     -0.23075458379095      1.51706901532273
  H           0.54196874595168      1.36685453792510     -0.16442034199842
  C          -0.20265579700688      1.65935355294931      2.54156585412972
  C          -1.01325387758180      2.51545849817225      1.61636970463974
  C          -0.78023162372717      3.79618702796396      1.40003103895461
  O           2.31217340245789      0.61987183836711      0.46182371166934
  C          -1.06340650940409      1.17838610471842      3.71489169761928
  H           0.63210091247708      2.22992660273059      2.96027895181178
  H          -1.85208946625590      2.01683071431307      1.14986490941228
  H           0.04467751052287      4.31090376744083      1.86532833529495
  H          -1.40125762105475      4.38368412712578      0.74635715708456
  H           2.11136125190381     -0.26288576510385      2.31579649220730
  F          -2.17475831241131      0.51762598543296      3.25516115469850
  H          -1.42085242454241      2.02395887349223      4.31033107077106
  H          -0.50400479650495      0.47208623036542      4.33476222536462
