18
Coordinates from ORCA-job NEB_reactant E -30.227270234810
  C           1.54108622145904     -0.12622907807521      0.07191935677987
  C           0.94515871030418      1.04344954707962      0.28169243000726
  O           2.58365702987536     -0.58626360879674      0.83177956560168
  H           1.20428495601931     -0.74855319217280     -0.74514338830058
  H           0.12184819416263      1.34405535559965     -0.35599362918132
  C          -1.07645974640846      2.65702705496730      3.66591213315805
  C          -0.72366483453790      2.24225440120427      2.46192113794496
  C           0.36153504044351      2.86729873314514      1.63554836500919
  O           1.33941789524014      1.93199620051412      1.24056615840277
  C          -2.15621648527198      2.03929442679739      4.49545706697977
  H          -0.59426302993553      3.50318236549960      4.13563166448247
  H          -1.21030242302869      1.38512801185077      2.01610344328693
  H           0.89559811540172      3.62781053353358      2.21034335932100
  H          -0.08708995553537      3.34077214885968      0.74563448658816
  H           2.88180804519729     -1.43564983960725      0.49558188840683
  F          -2.79324092442084      1.01573166656445      3.84183726066491
  H          -2.92638098244204      2.77877700509874      4.75005291089462
  H          -1.74327582652236      1.61631826793768      5.42025578995343
