18
Coordinates from ORCA-job NEB E -41.690111426070
  C           1.05130201159095      0.29225588049161      0.35073847938201
  C           0.37841672990105     -0.13302429968977      1.49282938177666
  C           0.98040566937244      1.73075729257852     -0.06351150705878
  H           2.04834769086086     -0.10674530430178      0.19031502503247
  Br          1.17957411548579     -1.75760335335162      2.30304207585978
  C          -0.10495580763912     -0.86528876001628     -1.00627645835632
  C          -1.38763862355173     -0.47312730726231     -0.61994135573816
  C          -1.88665379816990     -0.80687548100085      0.63570611149809
  O          -0.80087121953534      0.09258371221277      1.78677741553314
  O           0.31844192907824     -0.51876159677686     -2.23242999344897
  H           0.30981063826722     -1.78138640586736     -0.59064069322602
  H          -1.84948366953429      0.31532497784726     -1.19307724356600
  H          -1.64584007281393     -1.77273456041938      1.06152012419015
  H          -2.84369141658411     -0.40753307478098      0.93265481489366
  Cl          1.67511781637033      1.97304256581679     -1.68057037756217
  Cl         -0.62377229122802      2.45631603130487     -0.01091776939798
  Cl          2.02477524004645      2.66577264882467      1.09003999803380
  H           1.17671505808308     -0.90297296560930     -2.44625802784534
