18
Coordinates from ORCA-job NEB_product E -41.724066617180
  C           1.58107880529999     -1.07448205057081     -1.37995774021952
  C           0.91297418097370     -1.26302729302964     -0.04824536387787
  C           1.31927097660318      0.33491825979077     -1.91431086631389
  H           2.66707220700060     -1.17436405042362     -1.25561485746392
  Br          1.73094331468481     -2.74000908814186      0.94766660821421
  C           1.19587517116559     -2.24428413641072     -2.34195805425705
  C          -0.15273570736220     -2.07833374009133     -2.98381962735133
  C          -1.25127008369463     -2.64135236820085     -2.51705007935388
  O           0.00868842954385     -0.68838756549994      0.43796996209237
  O           2.23936141326878     -2.32953630670934     -3.28086858112878
  H           1.18671474524198     -3.16064283139333     -1.72583313907649
  H          -0.16023810408651     -1.48451634947221     -3.88668819777729
  H          -1.24882063902590     -3.24010709282251     -1.62055756574939
  H          -2.20128740215624     -2.51401141453167     -3.00452071314679
  Cl         -0.40209775359737      0.72603784343863     -2.06648705117181
  Cl          2.04356493345079      1.49879953718349     -0.75728776435238
  Cl          2.09731332487288      0.57404066715009     -3.48534066132136
  H           1.98229218781671     -2.92904202026514     -3.98939630774484
