23
Coordinates from ORCA-job NEB E -42.265823293850
  C           0.18340584474174      0.61635186621504     -0.75462290851197
  C          -0.95139166966137      1.42261720199130     -0.84006481261500
  C           0.09586207144210     -0.74846444488340     -1.42127747709091
  H           1.13865746505912      1.11138102436810     -0.89451210983631
  I          -0.67173281043053      3.55803644621430     -0.56856926408944
  C           0.07223056207375      0.36335315228055      1.20441621814963
  C          -1.19704511683884     -0.20079484674773      1.35504992137700
  C          -2.31874138839855      0.58742820418874      0.98275709693536
  O          -2.11150073130503      0.97021927627035     -0.59860862994051
  C           1.26868201767136     -0.35958935793443      1.74036681206597
  H           0.16516696518954      1.42322345510362      1.44236436262910
  H          -1.30415883248591     -1.27589731144130      1.36779320501249
  H          -2.36534850255046      1.59256358144537      1.39733097574340
  H          -3.28065742018816      0.09133524409925      0.98078067520786
  C           1.41905096360294     -1.15540313903025     -2.05715356840652
  H          -0.67297345072357     -0.69848674605630     -2.19621269672007
  H          -0.23158987090396     -1.51788633046424     -0.72199635872649
  H           1.73106685324870     -0.42197682514451     -2.79678495800071
  H           1.30775262442614     -2.11657288333661     -2.55182295518341
  H           2.20708975708183     -1.24893176846847     -1.31489007705620
  Br          1.26546428289755     -0.10460464756303      3.71633767981121
  Br          1.29742580439195     -2.27543221569054      1.43281710904983
  Br          2.95328458165965      0.38753106458418      1.09650176019570
