23
Coordinates from ORCA-job NEB_product E -42.312771823500
  C           2.46730618104978     -0.08664340553183      1.53742200879877
  C           1.36011994784530      0.82600398341323      1.07680291611452
  C           2.50165267715717     -1.34566199313029      0.65019364246509
  H           3.41296517158379      0.45610587762485      1.42057342261222
  I           1.62266798247977      2.88803192215457      1.73950460349761
  C           2.22572833867318     -0.29259373909952      3.05510451709875
  C           0.90249543501688     -0.95630208236244      3.32139644179871
  C          -0.05058234098768     -0.39404325172080      4.04048996757838
  O           0.41261768539794      0.55789385499989      0.43003184563594
  C           3.34195511969691     -1.01102882668941      3.80955949961449
  H           2.19846792532541      0.71292936508671      3.50155945641949
  H           0.76020287805246     -1.93646555317389      2.88915160685526
  H           0.06442418269603      0.58088092645018      4.48655552265042
  H          -0.98945789883610     -0.88970952957688      4.21233042394729
  C           3.90375899796160     -1.64149727709900      0.13055365913683
  H           1.83897950933404     -1.18792322628295     -0.20328431238998
  H           2.11750084043204     -2.21424410068455      1.18229530453285
  H           4.28564522604069     -0.80342149208016     -0.44830519706933
  H           3.87738875872631     -2.51670333018265     -0.51283411780935
  H           4.59990289127491     -1.84352710493147      0.94018735708876
  Br          3.00427434612254     -0.80884941090736      5.73973535068764
  Br          3.46889143462311     -2.92355132641653      3.47506083171429
  Br          5.09439471033390     -0.21188027985971      3.45361524902132
