18
Coordinates from ORCA-job NEB_product E -30.685809776580
  C           3.24122335527563      0.70939659732368      1.93739608411465
  C           2.15167557294408      1.65867388611718      1.46788445238381
  F           3.56041334519608     -0.18946305761748      0.94858872543123
  H           4.15574232240666      1.27063989452980      2.16836767843356
  C           1.34570180591707      1.12407726544621      0.38404096852639
  C           2.72548358147932     -0.03212959892687      3.19274036923989
  C           1.46267366297279     -0.77196828262920      2.84843681630804
  C           0.28230881905843     -0.50040943441528      3.37055328203664
  O           1.94051308511557      2.72541522385776      1.98094998861395
  C           3.79726021616748     -0.99232878670834      3.70732355140914
  H           2.51447799456682      0.73127875144589      3.94869884206601
  H           1.58002169812478     -1.56123250585433      2.11829241838897
  H           0.14804138687643      0.28462370197086      4.09733756557080
  H          -0.59915437172681     -1.05238705008427      3.09497843296314
  N           0.72093072397847      0.70219786373364     -0.47589339359005
  H           4.69348313286899     -0.44899737151406      3.99799057956560
  H           4.05891652429445     -1.71285933608569      2.93614021514029
  H           3.41848714448376     -1.53042776058950      4.57237342339794
