21
Coordinates from ORCA-job NEB_reactant E -33.030146813440
  C           1.24114105151484     -0.19892265675371     -0.09886585664085
  C           2.00364201142273     -1.24860477945753     -0.41893261052848
  N           0.76669459639049      0.74951688220635     -1.02469265483640
  H           1.01535836628570      0.01382128398216      0.93395013218911
  N           2.67757752762038     -2.04764899830416      0.52290713575352
  C           2.18960211144552     -4.37995710941616     -1.89680866876662
  C           3.31426111988471     -3.70659404321054     -2.07360618962433
  C           3.41419684170004     -2.20782006081284     -2.07962959860351
  O           2.21313642260015     -1.54927007256415     -1.75461963868199
  C           2.09245703727379     -5.86955538976501     -1.89128549016403
  H           1.25789460762205     -3.85573848506575     -1.73011117630390
  H           4.25116298085288     -4.21860725743559     -2.24806919003648
  H           3.67222245554498     -1.87599125876349     -3.09384743614204
  H           4.21855739066604     -1.89662238694356     -1.40121717255744
  H          -0.21389509233987      0.96610952852388     -0.89481045863045
  H           0.93979933114185      0.43723800321537     -1.97193906486072
  H           2.57555315827298     -3.04032281414917      0.34279620883667
  H           2.39054787759332     -1.82366601136215      1.46506988085571
  F           1.49087949125830     -6.30347109670611     -0.72674235401975
  H           1.45994676183005     -6.23022740973560     -2.71167450342811
  H           3.07656395141906     -6.34626586748223     -1.93557129380992
