18
Coordinates from ORCA-job NEB E -34.425517004850
  C           1.07178003634178     -0.22933347456711     -0.27829189331959
  C           0.52773085682801      0.10010063524649     -1.52915729310385
  C           0.80625559381049     -1.61938462078474      0.24565035675955
  H           2.09511013177325      0.08270253738351     -0.08955036908163
  H           1.02495081072824      0.88234500817685     -2.11389450280363
  C          -0.04124554378977      0.89886754750019      0.88375542254752
  C          -1.33250581098523      0.48967474426227      0.50573582513617
  C          -1.77462325427087      0.70828292485975     -0.80347714444770
  O          -0.68062612092148     -0.19778415745781     -1.81101216935599
  O           0.32311147133498      0.63708350742463      2.16546316046628
  H           0.32481434812189      1.84492683504899      0.48498452337754
  H          -1.77969160703696     -0.29268525177843      1.09985613067002
  H          -1.58095236456484      1.67252336311280     -1.25646570529961
  H          -2.72223033815568      0.27689541674538     -1.09076535734623
  F           1.57082694206403     -2.50486874956188     -0.45371345540342
  F           1.19523363721059     -1.76663236160358      1.53272866093390
  H          -0.24081025619597     -1.93497487219783      0.15069518862242
  H           1.21287146770755      0.95226096819053      2.35745862164824
