22
Coordinates from ORCA-job NEB E -46.884553637950
  C          -0.06673375235667     -0.26659923814161     -1.09070163042575
  C          -1.09939953326990      0.72561744304970     -1.25221108462808
  N          -0.61695046749570     -1.58801101374343     -0.74384174591310
  H           0.61565488300628     -0.36195292712637     -1.93810460043623
  N          -0.84312088982874      1.75707866357456     -2.26618534962553
  C           0.86617874871747      0.24225394926740      0.29748249637745
  C          -0.13048850383245      0.43202806086315      1.32054692207128
  C          -1.11021403394460      1.41584962880633      1.14288613216572
  O          -1.91591309657114      0.98800026566180     -0.33310242468854
  O           1.90946929356918     -0.63177494304768      0.44819157550405
  H           1.29443162101818      1.16528178629884     -0.10245430707817
  H          -0.32118545657762     -0.36545170980265      2.02005594612271
  H          -0.81840496827672      2.40098444750793      0.79666734154210
  H          -1.92931417660706      1.42790428049114      1.84772002750646
  O          -0.35832030400754     -2.47918564727723     -1.51083542711948
  O          -1.29936477703374     -1.67254871340250      0.24620009933204
  O          -1.41828092297023      2.80937604430707     -2.11953036891355
  O          -0.07378293645815      1.47493682928734     -3.16164958134337
  C           1.82385619043929     -1.66383778742616      1.41660462977764
  H           1.84254611264685     -1.24947489575138      2.42845931075031
  H           2.71203701189127     -2.27158389239681      1.25827438930020
  H           0.93729995794174     -2.28889063099943      1.29552764972185
