22
Coordinates from ORCA-job NEB_product E -46.898368050710
  C           2.69242316336261     -0.05461485300227      1.05193005775064
  C           1.41804034834522      0.70028092176395      0.89353911308494
  N           2.39375401326963     -1.48536703669708      1.36181189226277
  H           3.29227050910745     -0.03315258464315      0.13614587912918
  N           1.65512293119030      2.09553057764429      0.25378324265941
  C           3.55057161451433      0.59099550340425      2.22818691224618
  C           2.63234848475965      1.07213017427191      3.31777130937433
  C           2.53395849429227      2.34566519739118      3.65104001044726
  O           0.31280920979571      0.42174377617870      1.20695287513901
  O           4.54957600271323     -0.31579136942696      2.60154275235981
  H           4.06327499270996      1.44851338101870      1.76897569995837
  H           2.03122890363479      0.31524720469577      3.80069456431663
  H           3.12589728896665      3.10940003386794      3.17236028249486
  H           1.85594984834930      2.67388008973529      4.41908953075016
  O           2.70160850462607     -2.27955090551446      0.51647324057330
  O           1.86813759894426     -1.72436724840174      2.41468783491579
  O           0.67984480309000      2.77877522015659      0.13654933641809
  O           2.79172867825300      2.36692874827922     -0.04938204320968
  C           4.47117670080181     -0.93194126197193      3.87567325989635
  H           4.48336658246811     -0.18663352742206      4.67540571628481
  H           5.36519579726038     -1.54861388763234      3.93898304310206
  H           3.58721552954528     -1.56605815369580      3.97888549004574
