16
Coordinates from ORCA-job NEB E -31.349803475550
  C           0.08493782006953      1.03988863014616     -0.24580245642719
  C           0.13342900747369      0.31357305644569      1.07761319632990
  O           1.21531667871994      1.86244679918973     -0.35038069991586
  H          -0.83492149976363      1.63917633345951     -0.27114981037188
  C           0.19367390295979      1.15334814951162      2.19207041046146
  C          -0.06406535822902     -0.06888950942030     -1.30795835966463
  C          -0.80391818033137     -1.12701897819806     -0.59386518987329
  C          -0.03654864684660     -1.87469641159628      0.42811434325982
  O           0.56041761256030     -0.95957352370082      1.30103305079027
  Cl         -0.91989883164093      0.51958790329424     -2.75527078523203
  H           0.93473883784821     -0.38274272219996     -1.63613408849844
  H          -1.70069643565618     -1.54372238291794     -1.01395651393714
  H           0.74032623360899     -2.51962931407229     -0.00992387286708
  H          -0.69047298240707     -2.51361114201016      1.03368932474048
  H           1.04742461566101      2.59950023967213     -0.94812719782659
  N           0.14025722597334      1.86236287239675      3.10004864903220
