16
Coordinates from ORCA-job NEB_product E -31.398309872970
  C           1.57680655001749     -0.97335613138423     -0.94284908417439
  C           1.86823357265251     -1.59917725904933      0.42485000507074
  O           2.78408804774468     -0.69761744654538     -1.57600330124300
  H           0.97558394796402     -0.05755083999783     -0.80412203310824
  C           0.81628899265707     -1.30179642831356      1.38599608227457
  C           0.73460091742335     -2.01350720293033     -1.71240068310397
  C          -0.55409314541483     -2.33259426870820     -1.03779304799781
  C          -0.91916452444082     -3.55867306050025     -0.70877753471707
  O           2.82128926941193     -2.27612669538838      0.68198903758913
  Cl          0.38524043450778     -1.31790040135081     -3.34557810504052
  H           1.33862173233676     -2.90801546904843     -1.88639205876273
  H          -1.19841869954323     -1.48624264927286     -0.84308336001179
  H          -0.29148600494173     -4.41203283563615     -0.90617685710318
  H          -1.85795542238301     -3.75368556625209     -0.22171244569209
  H           2.61236253279243     -0.53376693208199     -2.51412832597089
  N          -0.00779820078437     -1.04785681354017      2.13818171199126
