16
Coordinates from ORCA-job NEB_reactant E -31.405598067460
  C           1.74728074914401      0.16487865934673     -0.07328279021261
  C           1.22718892762061     -1.07609375020531      0.01524626424637
  O           2.81718872791947      0.45165984800850     -0.84841233760321
  H           1.29686310721789      0.96021240767919      0.50593336480063
  C           0.10445659307489     -1.25180607958233      0.85585145812904
  C          -0.26084336747225     -3.79002022227035     -2.78489848224521
  C          -0.17897503828655     -3.19307256064926     -1.60876901275794
  C           1.02029774735255     -3.32752671938691     -0.71356138106342
  O           1.78045244127634     -2.13540921702551     -0.65396799100834
  Cl         -1.61873087824624     -3.62637629346352     -3.82044488511880
  H           0.50957717587812     -4.43568052527795     -3.17861380684029
  H          -0.97171238520481     -2.54888708070018     -1.25529344186947
  H           1.71279606450910     -4.07452578382254     -1.10722175694562
  H           0.69551719995928     -3.62503799352605      0.29393371138380
  H           3.05294704574761      1.38212943378013     -0.77852576859468
  N          -0.81250411049002     -1.39274412290465      1.53272685569974
