20
Coordinates from ORCA-job NEB E -53.931150930880
  C           1.09561677226955      0.43904214455203      0.30513300213450
  C           0.54132162657380      0.74079410454410      1.56486537737317
  C           1.11268728596273      1.54507200875687     -0.72585864308212
  H           2.05126155838388     -0.07942677970965      0.31621656201584
  Cl          1.18911237041661     -0.18705236624117      2.91174688745553
  C          -0.20176017710763     -0.96981989148819     -0.14059118000208
  C          -1.44970000897582     -0.36229704925698      0.01605389333967
  C          -1.78964121635949      0.12463717340219      1.31009360291287
  O          -0.63224248313166      1.20445512932207      1.69882083511318
  C           0.10287146773242     -1.60111480923048     -1.47791401504882
  H           0.14857999811735     -1.62783180444138      0.65218780756867
  H          -1.95320493794616      0.03566990062902     -0.85067939037034
  H          -1.66557221913931     -0.56935239981326      2.13822747042174
  H          -2.69631301015442      0.71216855507174      1.38133836131767
  Cl          1.85710917472528      1.02283472747175     -2.24978114929913
  Cl         -0.45357461315025      2.27417045359998     -1.06570687593194
  Cl          2.17052968273473      2.84163864536074     -0.05043147221361
  F          -0.33044515790249     -0.90079119538909     -2.52639637215381
  F           1.40780945981975     -1.84078290287096     -1.65508212719718
  F          -0.50444557286886     -2.80201364426935     -1.55224257435383
