20
Coordinates from ORCA-job NEB_reactant E -53.965902056390
  C           1.57742088307676      0.15528208778506      0.02234506954531
  C           0.94158155905602     -1.00569909327010      0.22860170336456
  C           2.04524011711440      0.55730138864916     -1.32593962749861
  H           1.76604272401915      0.82879624083348      0.83875781896118
  Cl          0.41980164602059     -1.41655676524535      1.82219787708729
  C          -0.23428345264990     -5.06434273518535     -1.99062720899759
  C          -0.17161273126264     -3.75266636966763     -1.83540130023956
  C           0.00886919054156     -3.07512117522572     -0.51698413955517
  O           0.69752123369226     -1.85827291371915     -0.75850900165103
  C          -0.45714832730156     -5.71529842872705     -3.32015483460003
  H          -0.14505222025749     -5.76698929867149     -1.17570257571555
  H          -0.25708358248157     -3.08304494307943     -2.68016820338778
  H           0.57139190026396     -3.70356824874815      0.18322039988247
  H          -0.97795502153524     -2.86349079187837     -0.07975919899457
  Cl          0.68205919597170      0.65490715571553     -2.47986820695761
  Cl          2.83246501991480      2.13884119829848     -1.26121957830068
  Cl          3.21311717100756     -0.62794681562675     -1.98541912202354
  F          -0.55267968156196     -4.84678126605641     -4.33191239809285
  F           0.53554064668159     -6.56572466806003     -3.63021119541063
  F          -1.58883627030999     -6.44352455812073     -3.32984627741562
