19
Coordinates from ORCA-job NEB E -34.085851616650
  C          -0.29685027707256      0.78410552373855     -0.17044881744107
  C           0.20707510901224      0.48344977054000      1.10167018209299
  O           0.52241827819614      0.59966463715704     -1.27635419871715
  H          -0.99589461618624      1.61977868492255     -0.26552790693813
  O          -0.43741399070676      0.94596568390708      2.20996903674416
  C          -1.39290826489671     -0.89855669317214     -0.47477660350533
  C          -0.95292349310562     -1.83960944199611      0.44988625803062
  C           0.44107768608700     -1.98440059601093      0.58056639963749
  O           0.98488903328805     -0.50675020448829      1.27887773877984
  Cl         -3.06164788129002     -0.42814614630736     -0.42328222622352
  H          -1.00985578876652     -0.91673449256421     -1.48745929941432
  H          -1.56779534738777     -2.02737115589736      1.32017215414146
  H           1.02638244990864     -1.94559711955144     -0.33030359154229
  H           0.81645648841369     -2.67299631146678      1.32355050790164
  C           1.50844112600175      1.60334987066823     -1.41694200475530
  H           2.05162121121522      1.36587114187348     -2.32912660515304
  H           2.19684903486673      1.60325567739256     -0.56607351698224
  H           1.05094603273372      2.59510129194162     -1.51059325150707
  H          -1.09086679031097      1.61961987931349      1.98619574485125
