19
Coordinates from ORCA-job NEB_product E -34.152255443520
  C           0.49252401963480     -0.91223111517502     -0.92026563045530
  C           1.36246501323390     -0.91216795574786      0.34162366225687
  O           1.22802874854088     -0.61891337760470     -2.07476923010685
  H          -0.32905389895349     -0.19257536590259     -0.77062357720855
  O           0.67035321633141     -0.48898051078041      1.40362353102501
  C          -0.06995547569612     -2.33275859438892     -1.07658148597557
  C          -0.69866549398121     -2.84837951010152      0.17253685779504
  C          -0.34149569721713     -3.97875107721214      0.75382019309413
  O           2.50766585761110     -1.25703260507764      0.39710051740039
  Cl         -1.31330350324579     -2.30525850547943     -2.36723151834647
  H           0.73301024974470     -2.98224530849254     -1.43238255885913
  H          -1.49421468556690     -2.23678924259022      0.57478653595226
  H           0.44619571292298     -4.59695151594655      0.35624444231599
  H          -0.82150941052673     -4.32835110257688      1.65122922761515
  C           1.68942815752719      0.71019506139982     -2.14077294990232
  H           2.17669102804722      0.80906544891260     -3.10795280791839
  H           2.41089464882401      0.92594321927727     -1.34585419269253
  H           0.85640814981879      1.42060972338365     -2.07404427333592
  H           1.21433336295039     -0.53002766589692      2.20781325734618
