19
Coordinates from ORCA-job NEB_reactant E -34.120015471840
  C           1.55164923758116      0.13272715437656     -0.07890136632628
  C           1.00804358704367     -1.02276215294344      0.31154980003856
  O           2.41209707580990      0.21951726039661     -1.15082563556962
  H           1.35584317214678      1.05211324376125      0.46444365311540
  O           0.22652578462338     -1.12654568537525      1.43167218268373
  C          -1.39400622447325     -4.14885467248470     -1.19039040690734
  C          -0.88193219722814     -3.33948244947377     -0.28068459688556
  C           0.57393807697903     -3.34741568997052      0.08783367532830
  O           1.24219003550351     -2.17595020935182     -0.35248686877367
  Cl         -3.05676762542223     -4.13325548478634     -1.62091281610925
  H          -0.81762038374764     -4.89055165838724     -1.72209528464056
  H          -1.49322815158703     -2.60420109685270      0.22111617137536
  H           1.09636253405593     -4.16357116304506     -0.41511124946028
  H           0.67662727324533     -3.45364480072391      1.17440099474318
  C           2.13090242878582      1.29360182046454     -2.01684229677312
  H           2.92239181366999      1.30172615857541     -2.76348392469019
  H           2.12914924653654      2.24875417535026     -1.47658621118934
  H           1.16224738471837      1.16646154980513     -2.51333657001681
  H           0.15808693175888     -0.26616629933502      1.85704075005747
