18
Coordinates from ORCA-job NEB_product E -36.005920641880
  C           3.06165759898425      0.62291756621162      2.19809812287473
  C           1.58214519425878      1.01116452550658      2.35994987242987
  I           3.51464388946386     -0.06808181291188      0.19859880549756
  H           3.65334139014471      1.53539697198863      2.33045244446900
  N           1.07123153634879      1.74947635847829      1.36235552927629
  C           3.45755543731140     -0.40233142099472      3.26659772735354
  C           2.95562715327156     -1.78616311534347      2.97851563366699
  C           1.85922923856826     -2.28436177303831      3.51550108302198
  O           0.96694402861957      0.72127754854803      3.35759021407655
  N           4.94087644783543     -0.40323580169586      3.35063793699297
  H           3.07423284236555     -0.03503561183967      4.22606689924541
  H           3.56202002804710     -2.35367952055732      2.28486297078482
  H           1.25228174173787     -1.71296034115720      4.19750340613633
  H           1.51860596914607     -3.27521179426976      3.27110888881445
  H           0.10948376095065      2.03918332797306      1.42997877166972
  H           1.57721800996263      1.94901977423897      0.51593890248562
  O           5.54375846244435     -0.96172191943040      2.46903854513287
  O           5.43444727053917      0.18784703829342      4.27900424607133
