23
Coordinates from ORCA-job NEB E -38.976874938990
  C           0.41535164615563      0.64325541443907      1.11144693423079
  C          -0.37954313309741     -0.09812989288392      0.32650781060817
  C           0.84829715872449      2.03756822330132      0.95216096756785
  H           0.77610955495188      0.18168820206804      2.02089325616798
  C          -0.87271036585013     -1.43239680045765      0.83318351395228
  C           1.79711319264825     -0.93422649165244     -1.47078493257717
  C           1.25195679081251      0.13607639264622     -2.02004369280656
  C          -0.21669586444166      0.44012296296423     -2.05913858376705
  O          -0.95584447928187      0.28538984542869     -0.83721671768982
  H           2.86243195866692     -1.08481831898069     -1.48383985682351
  H           1.21537219703135     -1.69839687723262     -0.98270650448442
  H           1.87695162323646      0.86839415078444     -2.51119256184695
  H          -0.70456397089945     -0.23745213112500     -2.77424857616766
  H          -0.38038285691429      1.46480625744543     -2.40693008794319
  Br          0.92938747018890      2.88535838306728      2.73219525593054
  Br          2.69400470794750      2.18208792628897      0.19946307435059
  Br         -0.31953815149395      3.14558375214474     -0.12720188432985
  C          -2.17213057904234     -1.23734640871416      1.61763196742030
  H          -0.12077955202685     -1.89602623920770      1.47274509727456
  H          -1.06895915860182     -2.08288097944333     -0.02053003477168
  H          -1.99889803646796     -0.61618158224664      2.49316293915350
  H          -2.55997596332792     -2.19894911018659      1.94343268846981
  H          -2.91695418891824     -0.75352667844766      0.99100992808150
