23
Coordinates from ORCA-job NEB_product E -39.004206427630
  C           1.98629310688895     -1.29826927684015     -1.31005846919438
  C           0.57051459768568     -1.81949746345599     -0.99059893142808
  C           1.98428021836620      0.21235247282250     -1.16684613274131
  H           2.70633677479808     -1.69984137731591     -0.58739056377314
  C           0.51731145862941     -2.86637504862252      0.08874350661217
  C           2.33092227259796     -1.79661634698821     -2.72608897694496
  C           3.69695696230046     -1.40451824281427     -3.19695899388447
  C           3.91911923364512     -0.70777924379200     -4.29558456498963
  O          -0.38423375489273     -1.41438797467924     -1.59484854758982
  H           2.26548069704258     -2.88996367337717     -2.70243493906842
  H           1.57360205510760     -1.43517697889019     -3.42591825648607
  H           4.52044010162810     -1.74794770167424     -2.58401007666426
  H           3.11240792255953     -0.35711474508630     -4.91857374771282
  H           4.91539896348137     -0.45548562073581     -4.61334238053898
  Br          1.18473099222077      0.68177782959395      0.57315630972881
  Br          3.79663506680273      0.95048077730440     -1.13699317751931
  Br          0.98346194891341      1.12419592527093     -2.54263412130163
  C          -0.89662550545192     -3.38180329700641      0.31564323862433
  H           0.91527452899480     -2.42705782196842      1.00820784540723
  H           1.18909221320869     -3.68097870998928     -0.19780283588545
  H          -1.54876675541583     -2.56387701548620      0.61025213294955
  H          -0.90302054592988     -4.13628062173751      1.09725159905185
  H          -1.29141255318107     -3.81663584453194     -0.59906991665119
