23
Coordinates from ORCA-job NEB E -49.370506427200
  C           0.43957682606139     -0.07350684783525      0.89384726164521
  C          -0.78416512096986     -0.75523660761057      1.00603955642734
  C           0.54278594804715      1.33082117297344      1.45801405695717
  H           1.32051862475173     -0.65632226411970      1.15718358139271
  C          -0.74805301643290     -2.27351503537875      1.00099662458060
  C           0.54486993403477      0.14049445930566     -0.99597492910957
  C          -0.69280346811814      0.71504449445772     -1.30423444456999
  C          -1.89228696596423     -0.00531482803981     -0.99713562320883
  O          -1.88100535596218     -0.18324608126262      0.57725599426964
  C           1.79909153819409      0.92843905975421     -1.30856354146039
  H           0.68201814618085     -0.91055206637427     -1.22956299333906
  H          -0.75399673092620      1.79067500042868     -1.38589675431476
  H          -1.93789093636064     -1.03060624893294     -1.35943245573198
  H          -2.81990015484518      0.52802854745537     -1.17133772106816
  F           1.86098412282342      1.67478012269913      1.59449150203221
  H           0.11145079370671      1.35150930294388      2.46496548168912
  H           0.06789590367780      2.09383742682404      0.83816106861412
  F          -1.92432993169778     -2.81447161299958      1.31363080929202
  F          -0.40569269468766     -2.79429747098989     -0.20968464512736
  F           0.16165781905714     -2.75320333366277      1.86251165798938
  F           1.56613394074197      2.27751078458676     -1.28069211751025
  H           2.13561067042096      0.69041664307345     -2.32490046825460
  H           2.60753010826677      0.72871538270382     -0.59968190119458
