25
Coordinates from ORCA-job NEB E -42.397733899550
  C           0.60793959213492      0.01991759290734     -0.13817494680493
  C          -0.28940761177304      0.09895647819085     -1.20438745508118
  C           0.79843515073549     -1.31449926012857      0.53794370810224
  H           1.53040456208900      0.58834027037475     -0.23803822562613
  C          -0.02743268313342      1.08144463907157     -2.32886203578358
  C          -0.42760432498791      1.10559148810463      1.24799137408568
  C          -1.62751889204485      0.37481148267929      1.22826353271461
  C          -2.44401226488438      0.38415257473553      0.10279967547622
  O          -1.44328244655953     -0.43036878012262     -1.16424464050052
  N           0.33368621811454      1.15827345828688      2.38964255557770
  H          -0.39426145561314      2.03639022196071      0.69346072709658
  H          -1.73270591198061     -0.43122881038213      1.94096732438638
  H          -2.56831831644973      1.30704417420552     -0.44753620958879
  H          -3.30843885545038     -0.26054459480720      0.08177901808898
  C           1.82498382031481     -2.14206927095870     -0.23570547627447
  H          -0.15311100170533     -1.84639782263760      0.56296155725494
  H           1.15632015573749     -1.17795632046338      1.56080570283780
  H           1.48162097140590     -2.32211810068630     -1.25159887736933
  H           1.97403196243394     -3.10164264955923      0.25286672719265
  H           2.78179397826797     -1.62608726071575     -0.28400065411490
  Br          1.42616372153112      0.37695369176742     -3.44780050649734
  Br         -1.61262975444389      1.29270199196394     -3.41660634090582
  Br          0.54793472036876      2.87169229868586     -1.72965620009947
  H           0.34321631699102      0.32936250226926      2.96385157168580
  H           1.22219234890130      1.62728000525791      2.32327809414687
