25
Coordinates from ORCA-job NEB_reactant E -42.419971495790
  C           1.82981005251193      0.27727657432424     -0.00225440368491
  C           1.60705571971104      1.52791149802899      0.39535131684410
  C           1.93454195645976     -0.88711650358893      0.92336765639340
  H           1.97532449333579      0.06740395166404     -1.05309962735547
  C           1.52053374761396      2.66601248197351     -0.58807983136785
  C          -0.23128916925187      3.69181919169255      3.84847510962038
  C           0.11478712522576      2.43240009124436      3.57820053017499
  C           0.09706391369388      1.88087843979013      2.19775257431495
  O           1.45381414252018      1.90241259075528      1.69474553688915
  N          -0.28569771716921      4.24347733129750      5.10302463518684
  H          -0.58529183219622      4.34310516037243      3.06043062797883
  H           0.48852132494850      1.78240502661788      4.35432342703763
  H          -0.54421683424412      2.49217399636544      1.55157323925414
  H          -0.26223391347058      0.84426964093279      2.17587607115664
  C           3.18908331970291     -1.70601441604424      0.62788238262786
  H           1.05298031346963     -1.52238733320356      0.78927678031436
  H           1.95168737178681     -0.53277973096605      1.95517577318705
  H           3.17385613126163     -2.07523421830580     -0.39510543366269
  H           3.24762185421074     -2.55663605371516      1.30193712798183
  H           4.07964272160753     -1.09654113745154      0.76159723380683
  Br          2.92132806129888      2.59540348282319     -1.94069255302356
  Br         -0.21707877719728      2.62052065680167     -1.54875912257032
  Br          1.65275546872128      4.36242083261898      0.32624542566574
  H           0.21540276007665      3.74737422507970      5.82362425624583
  H          -0.21610223462758      5.24554422089260      5.15993126698424
