25
Coordinates from ORCA-job NEB_product E -42.420602084930
  C           1.84557596293481      1.41523260953624      1.61716261453230
  C           1.11998990843710      1.41824249390454      0.31064325159069
  C           1.94599947169276     -0.02825784977720      2.13311800267505
  H           2.85079701223026      1.83655168259887      1.52681291232902
  C           1.75011671986155      2.22124075868172     -0.83240026110617
  C           1.05803284377268      2.33642011305413      2.61699702071740
  C          -0.38665018964060      1.93640394932071      2.71889047275122
  C          -1.38305133907386      2.65688794551630      2.23940014494098
  O           0.07907802394136      0.85999969259816      0.10267790550943
  N           1.76066215705368      2.32165459861301      3.88874048097275
  H           1.11766037775552      3.35862005427908      2.22856145923563
  H          -0.57942075288640      1.01166383049262      3.24610248710276
  H          -1.21346295614183      3.58435961620316      1.71567666344634
  H          -2.40919929990928      2.35010550887237      2.34294583143331
  C           2.83669016704108     -0.89431456937282      1.25141057493853
  H           0.94537574411916     -0.46114701846321      2.17157609704091
  H           2.36339688747522      0.00244820373740      3.13902182891536
  H           2.41689092035937     -1.00169976675499      0.25307727956697
  H           2.92842021387595     -1.88775994177253      1.68323536344699
  H           3.83353315790616     -0.46713064829948      1.16531847335683
  Br          3.51320634380028      1.52228332365938     -1.25730336994631
  Br          0.62193075030565      2.10205774236436     -2.40113517745779
  Br          1.93565982171219      4.08947785421723     -0.32847071995226
  H           1.46226077076884      1.53794183482840      4.45854597657005
  H           1.57760728260832      3.17131798196254      4.40669468739001
