19
Coordinates from ORCA-job NEB E -36.039742610060
  C           0.05157305030336      0.72081286066344     -0.00072719968500
  C           0.80672108184436     -0.52577335784844     -0.39023496889311
  C          -0.97602995843648      1.05476138263691     -1.03419779472872
  H           0.76416716816730      1.54497546853870      0.13376671793949
  N           2.00951552432696     -0.42459994210906     -0.76867056838173
  C          -0.66093781475277      0.49240165189810      1.35378705769941
  C          -1.28227668226059     -0.83343832407088      1.37888073795610
  C          -1.14829377776534     -1.74721046671660      0.21651217220574
  O           0.18901411964160     -1.69878070694150     -0.31363357040318
  H           0.02932118923781      0.60936007510184      2.20247384623169
  H          -1.38924813024000      1.30862573878541      1.45870727678219
  H          -1.49231575867796     -1.27751673060199      2.33806882241015
  H          -1.84689745681231     -1.53603818761384     -0.60495533186292
  H          -1.29213978319189     -2.78853013874434      0.51403313963472
  Br         -1.76560420927894      2.76238614074518     -0.86698606054114
  Br          3.50611894048109      2.29273562653725     -0.92374486194350
  Br         -0.83739982247462      0.36606841971195     -2.77863043186582
  H           2.45063274466869     -1.30318632187996     -1.01949887460211
  H           2.88407957521973      0.98294681190789     -0.89495010795223
