19
Coordinates from ORCA-job NEB_reactant E -36.100959142140
  C           1.32786821189252     -0.49807379167749      0.02297349974004
  C           1.92653279012161     -1.54624123556435      0.65136430637543
  C           1.91966132882845      0.18487354125172     -1.10683921544110
  H           0.38658887272653     -0.11664291379427      0.37692348810335
  N           3.12702429325885     -2.06498398505596      0.28569504199517
  C          -0.91822700802203     -2.72099028737992      4.24165539838639
  C          -0.32903417682447     -3.00262093306649      3.09621704296119
  C           0.05047040125839     -1.97593028730375      2.07390656080868
  O           1.38645799896881     -2.24036381729840      1.66740300532795
  H          -1.19160688372630     -3.49149816711139      4.94076146173487
  H          -1.16279873842413     -1.70991840858167      4.52297293151997
  H          -0.08192520959759     -4.01823355613492      2.82299602998052
  H          -0.02658130175360     -0.96535650134890      2.49342293459820
  H          -0.61781669785063     -2.05481709901378      1.20376611502583
  Br          0.76664991428337      1.57377442650965     -1.80301735264230
  Br          3.70188278941934      1.11151981179379     -0.63648105964018
  Br          2.38414033579276     -1.02176654045536     -2.62480291180413
  H           3.48524912727150     -2.78675444902899      0.88953269615431
  H           3.81296395237661     -1.47307580673951     -0.15404997318420
