19
Coordinates from ORCA-job NEB_reactant E -29.594891570960
  C           1.27960615305544     -0.00240625424753      0.13368350403673
  C           1.46673099292126      1.20499337468165     -0.40980141616354
  N           1.16701843815242     -0.24046245422058      1.49098777150976
  H           1.26507808813089     -0.87373028055026     -0.50296369154087
  C           1.62177051560984      1.41160517793796     -1.89323730769248
  C           4.24495786771093      4.37016497456504      0.05242668903935
  C           3.75068323378458      3.14688619408937      0.06163181790345
  C           2.68935551293739      2.67743646887798      1.01142527843497
  O           1.45968049309844      2.36278918056773      0.36069181055530
  H           5.00582312643011      4.67262238222086     -0.64686662374889
  H           3.91303810203029      5.11914943499222      0.75241719256226
  H           4.09253765844817      2.40722613563924     -0.65002068134746
  H           2.43372612527350      3.47059925797346      1.71849804174213
  H           3.05308920372275      1.79852288387604      1.56310260916475
  H           0.90581387711014      0.58135852894995      2.01906840997649
  H           0.62734401240563     -1.05530883341051      1.73795481573588
  F           0.81069652729541      0.55325451933941     -2.60219057643138
  H           2.64304404163964      1.21714738183697     -2.24790740176060
  H           1.32630603024317      2.43235192688101     -2.15530024197585
