19
Coordinates from ORCA-job NEB_product E -29.600506514730
  C           2.11194532424188      1.24171066241958     -0.10544614117393
  C           1.09773354361276      1.41708189936254     -1.23963650968116
  N           1.50979062095486      0.70937008728181      1.09887321580006
  H           2.90876033974582      0.55892573722116     -0.42244311899569
  C           1.69706119906995      1.32001856528958     -2.63528381146917
  C           2.72216331907943      2.62543177304224      0.20512940731210
  C           3.72647749199609      2.51916947172095      1.30886606703002
  C           3.64572133877212      3.17220036693186      2.45157755267951
  O          -0.07092093826686      1.60202167342664     -1.03387993526755
  H           3.20659721804414      3.01461316915552     -0.69417093153804
  H           1.92195743372908      3.30965322586717      0.49275826032786
  H           4.55227152817786      1.84813003733720      1.11570793405925
  H           2.82851580177223      3.84055779616882      2.66691145454346
  H           4.39325924625604      3.07035104951575      3.21889905075766
  H           0.76596888275417      1.32697298506122      1.40902586824233
  H           1.09477141778873     -0.19878114590428      0.91994044985192
  F           0.79928181890263      1.66972122626758     -3.60183100571566
  H           2.00091928899874      0.28398960333050     -2.83012441397702
  H           2.56422512437031      1.98186181650416     -2.73487339278596
