20
Coordinates from ORCA-job P E -25.154417528060
  C          -1.34246939463955      0.44061943006171     -2.28103178726139
  C          -0.09611837003236     -1.67455178332542     -1.05380667224768
  C          -1.45637703243292     -1.89256608567932     -1.63332223299855
  C          -2.05108674229721     -0.88188067592884     -2.24638413164506
  C          -0.86307721304939      0.75917988850672     -0.85035265322837
  C          -0.02790119192633     -0.37399440446634     -0.22564486393480
  H          -1.91192723332391     -2.86716321248538     -1.54950667577813
  H          -3.02843362576746     -0.94792868513995     -2.69882759347650
  O          -2.12240247651922      1.48491264980371     -2.81472519038610
  H           0.20694896398152     -2.51842607891572     -0.43358859657853
  H          -0.47170086508012      0.37833756807767     -2.94633368647443
  H           0.62114673409265     -1.59229274190694     -1.87708970725972
  H          -1.75476853746821      0.93945074687741     -0.24325133815104
  H          -0.43807755608314     -0.59314817445484      0.76545982759682
  H          -0.28891605885423      1.68620615779030     -0.87299404616682
  C           1.43016559370283      0.04663270963399     -0.05362339459087
  H          -2.92098154761020      1.57279967142752     -2.28180884736247
  H           1.86208963517609      0.31993976978094     -1.01401342123201
  H           2.01488948686370     -0.76903499818468      0.36674362744507
  H           1.50689743126746      0.90129824852748      0.61482138373056
