20
Coordinates from ORCA-job R E -25.073610856670
  C          -0.79965645134564     -0.39444711600452     -2.87362777803804
  C          -0.51287899753430     -3.40905843532304     -2.96932749396061
  C          -1.18513845901264     -2.70285969813445     -2.06476681102331
  C          -1.25048995218653     -1.26005201772642     -1.96224061327859
  C          -1.31482347656807      2.08967595737382      0.29012980605217
  C          -0.51082307358131      1.10294887801126      0.64528954116147
  H          -1.74208004282325     -3.23163959060973     -1.30101862171329
  H          -1.71767791184500     -0.86792887427762     -1.06656154909785
  O          -0.85285060274199      0.94846992340756     -2.77264301272029
  H          -0.52847806622484     -4.48493819391060     -2.96271215316520
  H          -0.34514805143187     -0.70646201201716     -3.80242237467622
  H           0.07344899445946     -2.94619467426316     -3.74354075149069
  H          -2.33681591925583      2.14340460147776      0.62690153967345
  H          -0.87569899662451      0.31274041734953      1.29017397788153
  H          -0.97670850430694      2.90455499563106     -0.33089227837153
  C           0.90986330296027      0.96801778228720      0.21437551658517
  H          -1.20146474268265      1.20197114335458     -1.90305116210672
  H           1.20598958222216      1.79436414362604     -0.42727910503742
  H           1.05135719877911      0.03089699885499     -0.32587171069117
  H           1.56275416974436      0.94511577089288      1.08634503401714
