20
Coordinates from ORCA-job TS E -25.055251203830
  C          -0.86102599855025      0.59312866430739     -1.45664253821938
  C           0.47845419938683     -1.57788893946414     -0.16577325711302
  C          -0.84202950971076     -1.62789933831551     -0.48301103144971
  C          -1.50078063744941     -0.56607267230601     -1.13086694154826
  C          -0.26748885967149      1.15342057287144      0.69494587067215
  C           0.52370025049353      0.18614091953800      1.23218033205644
  H          -1.46181944537513     -2.40653954749015     -0.05936108577195
  H          -2.58347483617514     -0.58842933910847     -1.17709556793454
  O          -1.49389438719804      1.68556721697610     -1.95250660925055
  H           0.91728722893382     -2.37209324902132      0.41678124167093
  H           0.19513042398847      0.63768133424874     -1.66145737301432
  H           1.16871952132589     -1.00645756617520     -0.75685761455096
  H          -1.30875316254469      1.21838610869726      0.95767775074002
  H           0.10528816939128     -0.48653425061947      1.96645962976779
  H           0.16674961435094      2.03014650284311      0.24708170474544
  C           2.01752718964481      0.34446636673726      1.27356110685727
  H          -2.44846450518567      1.58784847723913     -1.84068880567148
  H           2.37877189008455      0.87502065792644      0.39544091509272
  H           2.52863577083856     -0.61186796782432      1.34665692125754
  H           2.28746708342187      0.93197604893972      2.15347535166386
