15
Coordinates from ORCA-job NEB E -26.406880620950
  C           1.27159534018622      0.62508645139746     -0.24594188490423
  C           0.39022980121440      1.20230440902348      0.67761179650968
  O           1.18147667836414      0.95077713063537     -1.55873940719786
  H           2.30700522160024      0.47632019706038      0.04100893181456
  Br          0.91200152654308      0.98437773215381      2.55176599174084
  C           0.47511054584378     -1.20281555772593     -0.16801834147087
  C          -0.84840177751100     -0.94610505971485     -0.48123451985548
  C          -1.61820697115420     -0.17492695796920      0.43559051195094
  O          -0.85931312033013      1.28705220244008      0.43467074719935
  H           1.09139007161147     -1.70700594849955     -0.89793095161325
  H           0.73686082064554     -1.41862564446165      0.85911682904501
  H          -1.15465121306501     -0.95644210424244     -1.51847494256089
  H          -1.53408725804941     -0.43907267841073      1.48697689825283
  H          -2.62644847990952      0.09234813553079      0.14647393231783
  H           0.27543881401039      1.22672769278299     -1.76287559122846
