15
Coordinates from ORCA-job NEB_product E -26.447267264920
  C           1.74338078590332     -1.96044424150884     -0.20750468603017
  C           1.06118627001325     -0.87923422204475      0.58770678943097
  O           1.66308022551204     -1.68338142494200     -1.57184892157068
  H           2.81045003796072     -1.98578326350169      0.04042958792071
  Br          1.52997028532507     -0.93812020102167      2.48323034085171
  C           1.10270040515116     -3.32115666983676      0.17880435699568
  C          -0.38841830727504     -3.28714334577780      0.03361752114910
  C          -1.22751108344875     -3.34821012687656      1.05014662806279
  O           0.28586366378386     -0.07689462757013      0.20054182532622
  H           1.52926027625586     -4.06910978701025     -0.49287950533197
  H           1.37924692705513     -3.56768513299980      1.20419637344518
  H          -0.76007866394182     -3.19739228663700     -0.97926543895510
  H          -0.88143052669600     -3.44236764596871      2.06671203454744
  H          -2.29383785045597     -3.31222492162520      0.91012336867147
  H           0.75823755485716     -1.42985210267885     -1.79631027451335
