15
Coordinates from ORCA-job NEB_reactant E -26.426079386500
  C           1.82126189152954      0.07232700088490      0.17407645075368
  C           1.54538015012636     -1.06534197058193      0.80792102360140
  O           1.72670890145769      0.23231175606380     -1.16454191515226
  H           2.15818888369392      0.95479469370039      0.69184936373637
  Br          1.74043037784344     -1.13309469420606      2.71803539662119
  C          -0.42303738058090     -5.28924088676988      0.28356910368791
  C          -0.16393290133186     -4.09844636822215     -0.22020171529443
  C           0.02749579927476     -2.86814368188901      0.60782525715287
  O           1.21854338077204     -2.21118123997554      0.16965461456117
  H          -0.57112681597302     -6.14916079312195     -0.34589711454364
  H          -0.50878392768253     -5.45025240821913      1.34545094911639
  H          -0.07128595473227     -3.94646862565631     -1.28638669665491
  H           0.11447642172896     -3.12445338165793      1.67063855090539
  H          -0.82925192024001     -2.18798710951576      0.47928737954682
  H           1.45883309411390     -0.60596229083343     -1.56668064803794
