25
Coordinates from ORCA-job NEB E -44.781094382380
  C           0.13662324556291      0.16459960089019      0.66056311317566
  C           0.12748152722270     -1.28136971808256      1.01834083187838
  O           1.36917021564251      0.73112843913686      1.03371869457747
  H          -0.67769901040968      0.70095154929415      1.16796928303137
  C           0.71547444465931     -1.61165720035316      2.36445414663894
  C          -0.26286784504032      0.22634984981334     -0.84701223120458
  C          -1.17743929984543     -0.91879645690170     -0.98470900232683
  C          -0.58062635998742     -2.26720623995183     -0.93505477010663
  O           0.27940353384898     -2.33912449507823      0.16472568200415
  O          -0.83728980318379      1.48426497317121     -1.10475814717664
  H           0.66141643517876      0.09638974768949     -1.43771131759412
  H          -2.21021694134751     -0.76709656941987     -1.23323779171028
  H          -0.00537647977101     -2.51646883357867     -1.83837420959221
  H          -1.34384662530904     -3.04276167141789     -0.80226644718942
  C           1.33017295329895      2.11715926754681      1.30227635145384
  H           0.95374824933080      2.67280554389502      0.43940401748115
  H           2.35479459668654      2.41339383488981      1.51693984004755
  H           0.69543977465430      2.33239416551765      2.16923059105513
  F          -0.08060397683993     -2.51170829914289      3.01585727891408
  F           1.93131334620066     -2.20841268876889      2.28711664859282
  H           0.81049204352593     -0.72915542635196      3.01171364707426
  C          -1.01096650897630      1.75024666481440     -2.47655214613397
  H          -0.04968210087889      1.73477096448314     -3.00474316373134
  H          -1.44636819909204      2.74504654901470     -2.54168884565794
  H          -1.68254721513099      1.02425644889087     -2.94620205350084
