22
Coordinates from ORCA-job NEB E -32.733133669340
  C           0.76428180420347     -0.76125586789962      0.07911636078768
  C          -0.61602891356078     -0.63671583710882      0.29833281719871
  F           1.56572678536904     -1.17980168434048      1.09122863385412
  H           1.13406028299477     -1.15482890990326     -0.86296943948250
  C          -1.51907961260189     -0.65521989871942     -0.92015507304450
  C           1.30314515467674      1.14186323509195      0.04244705016058
  C           0.84714894335668      1.50995545142148      1.32613208921130
  C          -0.51429450888822      1.52799592054461      1.60207014280750
  O          -1.04422376569427     -0.18834286276371      1.41170573014586
  N           2.65710960766566      1.05250189303130     -0.24944995732188
  H           0.69771295083500      1.43639207660100     -0.80998185670976
  H           1.53984742962851      1.37723503589238      2.14604317260834
  H          -1.19167829627221      1.90892198218360      0.84934908977568
  H          -0.83212846290387      1.70211314754645      2.61776557540635
  C          -1.83303867605346     -2.09134182459707     -1.33918534383617
  H          -1.03859241981994     -0.13112764405789     -1.75080787923076
  H          -2.44655167161467     -0.13952894664338     -0.66657697223020
  H          -0.92066072537309     -2.62171798668787     -1.60102787326640
  H          -2.49806144877088     -2.09769135945339     -2.19984260422071
  H          -2.31685311498836     -2.62227318121060     -0.52336263296283
  H           3.27691886111362      1.11487659851340      0.54138834389525
  H           2.98523979669813      1.50799066255933     -1.08221937354567
