22
Coordinates from ORCA-job NEB_product E -32.770801330870
  C           2.13133280692095      1.68339051151642     -0.64129189363202
  C           0.84181789778339      1.46282149923781     -1.43575537061711
  F           1.98400353094769      1.17327026103701      0.62721119420351
  H           2.97954906247352      1.15619788616258     -1.09543279020437
  C           1.04811991872935      1.45871417438308     -2.92754958525975
  C           2.43714263836624      3.19954947979685     -0.54127263020151
  C           3.47134238037535      3.43129230224114      0.52801241493172
  C           3.27342165996666      4.17142659438229      1.60142163701234
  O          -0.22306082436008      1.34996333886463     -0.89235374512120
  N           2.86524392314469      3.67404650929740     -1.85228408691691
  H           1.50843815861675      3.71575069267859     -0.27621527286666
  H           4.42678946138070      2.95375106213588      0.34835067072928
  H           2.32453057070741      4.64286842719225      1.79625973299867
  H           4.04572987213572      4.32661298349316      2.33509661553084
  C          -0.26811645021404      1.38886655217684     -3.68916375247287
  H           1.68217024090308      0.60548693252802     -3.18075537108100
  H           1.60620302306533      2.36754146010965     -3.17229960729084
  H          -0.81462247564551      0.49008199958939     -3.41529188549943
  H          -0.08773857008737      1.37939126259929     -4.76081431430188
  H          -0.88802866424407      2.24707705137507     -3.44436573169651
  H           3.80668747688583      3.34564352306974     -2.04853498683885
  H           2.88664436214840      4.68735549613294     -1.86247124140545
