20
Coordinates from ORCA-job NEB_product E -32.928238098540
  C           2.69569376885332      0.34752676203843      2.55458167515606
  C           1.23017375371715      0.29445253808029      2.12150162089626
  Br          3.72608834418470      0.73675972184817      0.92136228838734
  H           2.86501310382165      1.21852381059392      3.19384954627056
  C           0.63257198091066      1.63837716178228      1.81201621399034
  C           3.18848642298446     -0.92762137047468      3.23084628309262
  C           3.06965575308464     -2.14459035124009      2.35699714225989
  C           2.53665675552940     -3.28347720338181      2.75129547950292
  O           0.62326443453465     -0.73848116573748      2.05851318911549
  C           4.64513008902556     -0.75503160909560      3.68288993547180
  H           2.57387520737481     -1.07268198683106      4.12820721056531
  H           3.49758236347798     -2.04830612175366      1.36771294269186
  H           2.11211661279752     -3.40378633907421      3.73375373650469
  H           2.49801247599611     -4.14095382058317      2.10315723916044
  H           0.45534577010474      2.16410995838842      2.75019913040862
  H          -0.31700657965054      1.50924660259378      1.29968896955983
  H           1.30213651604113      2.24245187505566      1.20464053291821
  F           4.97326106724720     -1.73322543306303      4.58163634192651
  H           4.79868603486417      0.20339655024054      4.19382325532469
  H           5.34095612510070     -0.84728957938670      2.84232726679658
