19
Coordinates from ORCA-job NEB E -30.518423187490
  C           0.66391913357691      0.89667765744725     -0.41018027944142
  C          -0.54073940891834      1.35308848352236      0.11299347316851
  C           0.71444763064337      0.31747331679921     -1.79400958491263
  H           1.54723238435160      1.44340710102403     -0.10139331216702
  O          -0.47892647823530      2.23373728667483      1.15477965879351
  C           0.67139593411141     -0.77778623549974      0.78755553027187
  C          -0.52926611243726     -1.39449044624730      0.44688407881424
  C          -1.72712951885636     -0.70268245854557      0.76058476588820
  O          -1.65345001771264      0.73227596731442     -0.08896746601414
  C           1.89712997877890     -1.38781043809662      0.42286574390653
  H           0.73201935140562     -0.21750193565886      1.71632277498563
  H          -0.53416920826669     -2.10972849663133     -0.36185786849219
  H          -1.81276226799122     -0.31112156621879      1.77120092673759
  H          -2.65392551631584     -1.12168134977113      0.39192647893204
  H          -0.20672764654376     -0.21261615635765     -2.02204012767905
  H           1.56077805348143     -0.35648424746592     -1.90410726007100
  H           0.83175175249289      1.12655808885911     -2.51506642259413
  H          -1.36873338524311      2.36963329870866      1.50782759610737
  N           2.88715534167839     -1.88094786985698      0.12468129376610
