19
Coordinates from ORCA-job NEB_reactant E -30.537364349280
  C           1.63762383822976     -0.19934304550457      0.09732801990177
  C           1.24561561788910      0.10024268840400      1.33143830430021
  C           2.24479315730823     -1.46294313985420     -0.42620504525238
  H           1.52015094230478      0.60204321583236     -0.61532482261972
  O           0.79469898098004      1.35370368726025      1.61077942709829
  C           2.27989391486171     -4.17006506566886      2.23219702083683
  C           2.20395881127190     -2.87581505505944      2.54081556441533
  C           0.96151435750195     -2.05423221049771      2.38684796362655
  O           1.20987483067519     -0.66723766605805      2.47080872293649
  C           3.45230844015906     -4.92407137817145      2.42765189966986
  H           1.44106930260241     -4.70834985672067      1.80937264933616
  H           3.05299646841992     -2.35744337126676      2.96632998876985
  H           0.29428725471969     -2.27903622364058      3.23254807957948
  H           0.43055542440243     -2.29924301227590      1.46077020639916
  H           2.72851526601212     -2.04140600724735      0.35649568318618
  H           2.99583853727519     -1.21087843164650     -1.17219067297743
  H           1.49824238003306     -2.09172530444471     -0.91589082637935
  H           0.58744375684298      1.39251331710324      2.55328941584430
  N           4.40311871851048     -5.54671314054308      2.57943842132842
