19
Coordinates from ORCA-job NEB_product E -30.573549554710
  C           2.55886031672148     -1.24654735991625      1.54714901603009
  C           1.37840851712058     -0.47151020230429      2.10640898143313
  C           2.73545053159789     -1.04762597378569      0.04455812561368
  H           3.44382247687766     -0.84627344939120      2.06128840284100
  O           1.10281322808534      0.62825993919833      1.40314892239398
  C           2.41341246090878     -2.73557739585631      1.95065777322400
  C           1.31940769004729     -3.43230615384818      1.18155472412196
  C           0.13933929431359     -3.70849855401692      1.70121403397658
  O           0.76481726426158     -0.77714907879248      3.09374774740225
  C           3.66667396737211     -3.41739529457552      1.73195838936630
  H           2.17943677995724     -2.76968400140477      3.02172016619470
  H           1.55973840753073     -3.70105942151128      0.16197938434284
  H          -0.10894093856436     -3.44468509017081      2.71589824364827
  H          -0.63036500361108     -4.19639524297944      1.12779528667735
  H           1.83102142755053     -1.32495085827959     -0.49104451767277
  H           3.56111330993148     -1.65959510610110     -0.31244029671568
  H           2.95425872880086     -0.00572632431562     -0.17214334373687
  H           0.36120053937265      1.10833064866159      1.80516859897492
  N           4.65523100172565     -3.95861108061046      1.54078036188428
