22
Coordinates from ORCA-job NEB_product E -41.676795589580
  C           1.08654742323033     -0.72606959849566     -0.82496380163753
  C           1.61654001312463     -1.48940091049948      0.37871284259709
  O           2.20142035018654     -0.25235821732249     -1.53031744476848
  H           0.43434983597149      0.10559124408369     -0.52078245130664
  C           0.86649513372736     -1.26810034409289      1.71498777909416
  C           0.22395460537720     -1.73193858243213     -1.64941601310784
  C          -0.53247743746882     -2.64594268402872     -0.72473124588300
  C          -0.20552700605462     -3.90467014956176     -0.49894730962930
  O           2.56696641519507     -2.21295061673866      0.35314207958503
  O          -0.64823844492004     -0.97601144447478     -2.46246263770534
  H           0.92591969150807     -2.31327138458794     -2.26738560771169
  H          -1.39148174199992     -2.19136205073948     -0.24851884874654
  H           0.65255953815894     -4.35849776340266     -0.96674875074665
  H          -0.76680348867335     -4.52118781111445      0.18098496160947
  C           1.89437070318735      0.70615942708587     -2.51998913745658
  H           2.84780915296717      0.99550200172607     -2.95626240663833
  H           1.40908422625501      1.58280630814934     -2.07578476253272
  H           1.23973028949301      0.29509521349366     -3.29171220833754
  F          -0.30090609942132     -0.60241332550425      1.56995343669105
  F           0.56480731838739     -2.45235509151996      2.28801844893274
  H           1.49975689148128     -0.69924080445002      2.41687205680697
  H          -1.34807736971279     -1.55308341557330     -2.78784897910834
