22
Coordinates from ORCA-job NEB_reactant E -41.685315618740
  C           1.49145155445377      0.30659127186060     -0.06930333189327
  C           1.17453798113110     -0.98260995007858      0.11718802525323
  O           1.37880759022017      0.91921300338958     -1.27083458539921
  H           1.86428610254848      0.90129701095724      0.75590945658354
  C           1.28024382570245     -1.56217895193071      1.50325351045800
  C          -0.24814006477097     -4.67383609801291     -2.33029594144302
  C          -0.48303111873028     -3.40677783355770     -2.02036408273973
  C          -0.14487906621652     -2.80634517206159     -0.69642662386712
  O           0.81403501038762     -1.77285722226170     -0.93284351888289
  O          -0.53183039252119     -5.26530862781687     -3.51073669586223
  H           0.18309465861504     -5.37719985583991     -1.63262563217952
  H          -0.90327290599126     -2.72610709602550     -2.74793035894754
  H           0.26445160816965     -3.57348152722647     -0.02984297259972
  H          -1.04275616394315     -2.37180350249670     -0.23469445335336
  C           1.94327915834766      2.20711319924857     -1.35121398765503
  H           1.69805265265641      2.58569415550718     -2.34144304718665
  H           3.03171327626414      2.17208022981640     -1.23630260352510
  H           1.52386360110138      2.87581749580280     -0.59189342302964
  F           0.05841846010594     -1.84019951848585      2.04502991348657
  F           1.95784381536252     -2.73723672291183      1.51831483610887
  H           1.78826188356742     -0.87456111284813      2.19490745147476
  H          -0.89763146646039     -4.61410317502789     -4.12345193480093
