18
Coordinates from ORCA-job NEB E -29.999072096490
  C           0.39904955853656     -0.87790096837472      0.24431548056486
  C          -0.84186997692175     -1.49683162819519      0.05672099485351
  Br          0.33411522981361     -0.04197317564324      2.43473384495878
  H           1.24553347224425     -1.53370341626949      0.39734445313549
  C          -1.00557253365168     -2.87492305554428      0.21353091804043
  C           0.67733033663052      0.36037890902589     -0.62455395118719
  C          -0.56161361023507      1.17498983261791     -0.64094843059488
  C          -1.78301636869011      0.61742158423342     -0.06505891660111
  O          -1.97018262132627     -0.75405463643499     -0.12551784363055
  C           1.90876984125970      1.17052486250527     -0.21281046280077
  H           0.88628597857363     -0.04334911127804     -1.62885977127751
  H          -0.47467086953893      2.24957076192714     -0.62741095079283
  H          -2.70381653339183      1.08757663726319     -0.41745971762718
  H          -1.66096599032170      0.87195913706105      1.02040783038200
  N          -1.09310352372331     -4.01727224799970      0.32633172055225
  H           2.76950161603753      0.51478190311296     -0.11032889092080
  H           1.74636452045305      1.67778972098271      0.73347778844831
  H           2.12786147425177      1.91501489101011     -0.97391409550280
