18
Coordinates from ORCA-job NEB_product E -30.037904244820
  C           2.94336601432137      0.71588253637235     -1.85875104087874
  C           1.69768307352670     -0.13900614049253     -1.98595744168144
  Br          3.35730481045029      0.77828966776251      0.07006162452530
  H           3.79129304114890      0.18039942143154     -2.29978974364678
  C           1.85794165121706     -1.44874733749061     -1.37233617852219
  C           2.79307621006267      2.10736684107503     -2.47519688775598
  C           1.75833116941608      2.92458653450733     -1.75456203096075
  C           0.63503007789528      3.34649601879073     -2.30061284815804
  O           0.68898988847199      0.19808144679233     -2.54345641102328
  C           4.13628868284052      2.83659456365789     -2.48326418609950
  H           2.46017712748292      1.94623249405968     -3.50825395298480
  H           2.00134533658729      3.17127137342041     -0.72927708756927
  H           0.37237563471142      3.11119981251482     -3.31865649707938
  H          -0.07439594469951      3.93776422628758     -1.74816322264455
  N           1.99680401941705     -2.48933870508965     -0.91775206613715
  H           4.88175220491167      2.27289147017637     -3.04117278111960
  H           4.49747841323394      2.98240963317795     -1.46702883202795
  H           4.02085858900436      3.81222614304627     -2.94833041623592
