16
Coordinates from ORCA-job NEB E -29.818444951650
  C          -0.35221026553328      1.29433241537976     -0.09275801526749
  C          -1.39895759496042      0.41921099332302      0.24211497873447
  N          -0.04603966140401      1.50357054211466     -1.41484150708304
  H          -0.19636083937726      2.16372329241469      0.53627817568820
  Br         -2.05900979355114      0.65269324655384      2.08677840124688
  C           1.08865523714723      0.00611721699119      0.64756330716455
  C           0.83646077484661     -1.16386049939450     -0.05908040279038
  C          -0.33524133882173     -1.87814855174571      0.19995674739559
  O          -1.59857010734171     -0.68651981412014     -0.29260659476015
  Cl          2.53035764913841      0.90418768408258      0.26915548018655
  H           0.82432638916848      0.09151070822235      1.69383792188737
  H           1.33578374574116     -1.30509893187546     -1.00763558597389
  H          -0.67948184775410     -1.96663293095413      1.22211288826401
  H          -0.58423636746819     -2.71560177841555     -0.43250426763690
  H           0.82834375189731      1.97840614904373     -1.58490205804333
  H          -0.19381973172735      0.70211025837966     -2.01346946901242
