16
Coordinates from ORCA-job NEB_product E -29.849987047830
  C           2.84640908605103     -0.61354542878044      0.84799758133314
  C           1.36094434678111     -0.74464429514853      1.12675699879605
  N           3.11366548049072     -0.40479137522652     -0.54623864524282
  H           3.23572377531918      0.24015250993474      1.41661870139775
  Br          0.93366970542121     -0.68753464923014      3.04524948087303
  C           3.53917290333378     -1.89468380582963      1.37370846853830
  C           3.02443298295814     -3.13606643737038      0.72280107875487
  C           2.35074183205853     -4.06564078722123      1.37496279858968
  O           0.48500444552975     -0.86736646600614      0.34573622665925
  Cl          5.29440980056286     -1.74245103319418      1.05507742499581
  H           3.42613602266325     -1.94988830055960      2.45924581092047
  H           3.24923148418510     -3.24073317244128     -0.32887337863263
  H           2.13389028610599     -3.98033993616068      2.42736646997653
  H           1.98505840819416     -4.94841562493081      0.88059344172600
  H           2.77200884039592      0.49340013898714     -0.86389395007947
  H           2.70120059994925     -1.13025133682233     -1.12060850860596
