20
Coordinates from ORCA-job NEB_product E -36.502203483100
  C           1.57165443240957     -1.81217565776222      0.83298553816241
  C           1.13977837878354     -0.43202406521879      1.34469679060233
  C           1.11916495356631     -2.01795427778079     -0.60724684814874
  H           2.66491489728322     -1.89215827832375      0.90229431874761
  O           1.86169966086759      0.03718959400422      2.37328118603341
  C           0.94937112173514     -2.85309322458645      1.80640493544734
  C          -0.52378294447754     -3.01984261332777      1.60372918383636
  C          -1.42554079517367     -2.40651053990029      2.34536457241476
  O           0.21527755861168      0.17897531476901      0.90469186390423
  N           1.68583177494659     -4.12230706639549      1.56158342625721
  H           1.17720494947641     -2.56575034763579      2.83985041582413
  H          -0.80459769852377     -3.68115618840629      0.79723722461282
  H          -1.15343365172340     -1.74052464372690      3.14773137554333
  H          -2.47814682905347     -2.53322424904115      2.16728118616094
  H           0.08018861225019     -1.71639189408900     -0.71131368312066
  H           1.22412704349967     -3.05833297702488     -0.90610471006811
  H           1.71993953317092     -1.40380756734877     -1.27310723664300
  H           2.60695748933709     -0.52821362063512      2.61928087477253
  O           1.28019984904872     -4.86526806411617      0.70647912490300
  O           2.68659166396520     -4.28312963345361      2.22018046075811
