20
Coordinates from ORCA-job NEB_reactant E -36.478387925160
  C           1.78524300957141      0.01425883305396      0.03269764500438
  C           1.24314136634985     -0.56825035644681      1.09825792697503
  C           1.96477119567536     -0.66141820806799     -1.28815406333113
  H           2.12128044569523      1.03708789812248      0.11402444897574
  O           1.07540737842813      0.04571572269097      2.31107694730746
  C          -0.61715422437492     -4.62220676213478      2.90875917352767
  C          -0.24406311417726     -3.74905137960774      1.97938812799059
  C           0.23837695893849     -2.37046339865991      2.24939841656851
  O           0.80152614876967     -1.85353341463622      1.06375044545255
  N          -1.08882240163293     -5.92591479622494      2.55262701049196
  H          -0.60463621241039     -4.44648573739646      3.97355016576925
  H          -0.29087521090608     -4.03602204575236      0.93573120708990
  H           0.97603387594307     -2.36376318914448      3.06372144184807
  H          -0.60672487318855     -1.74343881916603      2.57328222681804
  H           1.59532354530268     -1.68043363864309     -1.23973998052184
  H           3.01817702655653     -0.67889290043491     -1.56635011509264
  H           1.42395970891804     -0.12431240391022     -2.06694050272589
  H           1.41010373018319      0.94679607892678      2.26032834143623
  O          -1.15289293321184     -6.21810203885532      1.37839292277415
  O          -1.39597542042970     -6.65786944371294      3.46989821364196
