18
Coordinates from ORCA-job NEB_reactant E -32.619421712160
  C           2.05763619370268     -0.16368856369313     -0.03279693057108
  C           1.91254886144328     -0.00812258095431      1.28594639017143
  I           1.92157047920810     -1.90463830714933     -1.19603363506925
  H           2.18404244285369      0.72554944133139     -0.62144889683937
  O           1.93644940249580      1.28264734596317      1.71535148894554
  C           4.57018950351502     -2.67353538852190      3.02215267515530
  C           3.75400578922418     -2.20568966011869      2.09890623140568
  C           2.26412703960238     -2.20166789977637      2.26473072485342
  O           1.72654717163161     -0.88775691411377      2.29596434878472
  I           6.65924326872844     -2.69215169733158      2.80725335308833
  H           4.23255168081406     -3.10026932234850      3.95188843598522
  H           4.13110538726819     -1.78140157259333      1.17951088457356
  H           1.98040909162996     -2.62085066089816      3.23361957934691
  H           1.79716226280261     -2.79845998194478      1.47385895222622
  C           1.87623572609413      1.51835994551128      3.10966043728441
  H           1.93685171584886      2.59913515512325      3.21561968851445
  H           2.71360571941374      1.04603461261554      3.62970203222909
  H           0.93771826372329      1.15310604889922      3.53241423991543
