21
Coordinates from ORCA-job NEB E -40.033172718770
  C           0.13181569316531     -0.75933694918744      0.66832844253488
  C          -1.16497538616045     -0.87201846785536      0.12512295019023
  C           0.23419535462208     -0.02345470814414      1.98147736936939
  H           0.74479667970261     -1.65566682142313      0.62102090724853
  N          -1.35805833563414     -1.98235077423400     -0.82898533043504
  C           0.95746154147215      0.35980921577638     -0.69594823744395
  C           0.05898283918885      1.46213563337446     -0.65371947815446
  C          -1.24073759651602      1.34306895917483     -1.11227188607995
  O          -1.96156739133408      0.09191863697037      0.03931024355506
  N           2.28272810509838      0.55331283436898     -0.38694057189288
  H           0.83396525458388     -0.33384895833363     -1.52376768489515
  H           0.31404729537377      2.27832509515615      0.00818005236177
  H          -1.45783866966045      0.73275975498161     -1.97773168244162
  H          -1.92454900386428      2.16270945297543     -0.95995877045812
  F           1.53428890534903      0.29503968871574      2.29078455374542
  H          -0.12259779769773     -0.67168652921829      2.79121538905398
  H          -0.34006459754205      0.90642065491504      1.97403143123720
  O          -2.23710168590828     -1.85617398232324     -1.65019638721474
  O          -0.61883276792073     -2.94362854415608     -0.72522746360322
  H           2.47395900782496      1.18527063599397      0.37676828979154
  H           2.86008255585719     -0.27260482752766     -0.36149213646887
