21
Coordinates from ORCA-job NEB_reactant E -40.053848931190
  C           2.00667006866423      0.04474557274132     -0.34314130819711
  C           1.59153481280381      0.11368025615010     -1.61005496848236
  C           1.98980315482184      1.11615377772687      0.69274156242459
  H           2.39028665377129     -0.90868472151292     -0.00554939175446
  N           1.72356192593380     -1.10615951058799     -2.42267258115697
  C           3.72637927723503      1.91510550583847     -3.12542854421911
  C           2.99096656496448      2.58819512645987     -2.23720938803164
  C           1.49993052398435      2.44556337165926     -2.16850847400600
  O           1.06489993990782      1.09476586773572     -2.34997124839137
  N           5.07670108496052      2.04740119217209     -3.30099801074236
  H           3.24737945976851      1.23646759453001     -3.81917759644077
  H           3.44839445786031      3.28247321286767     -1.54841888653675
  H           1.00332488376122      2.97064844575420     -2.99157545930031
  H           1.11294546662779      2.84362145107267     -1.22381264940210
  F           2.58852072873276      0.66394056786425      1.83853849296396
  H           0.96585056542415      1.40055743561045      0.96775224186526
  H           2.55076285468177      2.00533334886131      0.37961299373787
  O           1.66979750643785     -0.96923022755957     -3.62001878734111
  O           1.89649496659170     -2.15330664930212     -1.84162851163846
  H           5.58464905128909      2.53224086406257     -2.57872361939375
  H           5.56644605177769      1.28228751785578     -3.73145586595707
