21
Coordinates from ORCA-job NEB_product E -40.046816089000
  C           2.72520509179594      0.41725269300461     -0.99627333118119
  C           1.37595954757813     -0.06108897363684     -1.38051879041746
  C           2.65817705007481      1.08968761092181      0.37655350022798
  H           3.43263043253811     -0.41844816988281     -0.98777911960800
  N           1.42975856874514     -1.15652535655057     -2.46658890504575
  C           3.22278125083766      1.37899067294934     -2.14322613684330
  C           2.59452258936689      2.74068456645113     -1.99385635781275
  C           1.52789821347727      3.13260993722411     -2.66465940436666
  O           0.30363956311557      0.30905749310542     -1.02969765045334
  N           4.66558755788433      1.36052511452128     -2.13099662535546
  H           2.90724050509018      0.94530134435408     -3.10181426473833
  H           3.09373794868321      3.40416723755237     -1.29984715152879
  H           1.02224807377464      2.48387209067145     -3.36145384926325
  H           1.11174020009993      4.11763971178703     -2.54338779542328
  F           3.85815166250635      1.66310051596891      0.70128114486671
  H           2.43730919316460      0.35248695914866      1.15476026493882
  H           1.90444660979340      1.88296787572449      0.38926927203680
  O           0.51496606801113     -1.16183632936448     -3.24611100427163
  O           2.37050331632393     -1.91158717183124     -2.43660934234622
  H           5.03307858239297      1.79497890308746     -1.29237442499827
  H           5.04531797474579      1.83106327479378     -2.94197002841663
