22
Coordinates from ORCA-job NEB_reactant E -47.689838441230
  C           2.39934320610334     -0.98149155778132      0.21056719785993
  C           1.55857601660561     -1.10797352146090      1.25860492047177
  N           2.14346771631722     -1.28132703919738     -1.15265779973758
  H           3.40952070434331     -0.64336654081083      0.38360224000076
  C           2.06975161351561     -0.62137330174012      2.61148340463681
  C           1.67440401482059     -4.13656355380729      0.54957501334873
  C           0.64185806649362     -3.62303075776439     -0.09939485669078
  C          -0.21449250559069     -2.48235675502447      0.36843419493575
  O           0.37138331808264     -1.66699633615751      1.38233818716588
  C           2.51285228180827     -5.25402777462233      0.03611884238178
  H           1.97175133269772     -3.74192189564380      1.51317316236597
  H           0.34464334378349     -4.01975746426682     -1.05974457631723
  H          -1.12911444198196     -2.85536358036647      0.84158741854568
  H          -0.49001215076375     -1.86293682020701     -0.49483819296534
  O           3.07506661631751     -1.71136710414234     -1.79783042708534
  O           1.03945683966849     -1.04132175476239     -1.60473008033457
  Cl          3.29152115165869     -1.78310504805647      3.20248436477740
  Cl          2.83037887880119      0.97377999575924      2.46618604213758
  Cl          0.76321935916139     -0.52174258497393      3.79593423674442
  H           2.12370671618267     -5.63626041719202     -0.90344466855789
  H           2.55078723161884     -6.06162787762039      0.76537106259657
  H           3.53243069035620     -4.90406831016105     -0.12321968628030
