22
Coordinates from ORCA-job NEB_product E -47.691676218400
  C           2.37062524531579     -2.06406840780842      0.27374271953392
  C           1.52225208765929     -0.97800899019489      0.89138822578047
  N           2.59261625399832     -1.73242781815603     -1.16753855086689
  H           3.36119930541752     -2.11909646233114      0.73298929030238
  C           2.11566672143348     -0.38485557630665      2.18564975876304
  C           1.65144326033216     -3.44113909609259      0.41018004270401
  C           0.22318655664692     -3.37908616124352     -0.04332286962839
  C          -0.80236085424243     -3.53715479661802      0.77211307950137
  O           0.48922399844591     -0.58821660038771      0.44355807636268
  C           2.42933283904715     -4.50301317613152     -0.36868539951538
  H           1.67839130927521     -3.68807453524179      1.47647665038018
  H           0.06888356567714     -3.19760126090535     -1.09653696050859
  H          -0.67097894921014     -3.71432157160949      1.82792239226230
  H          -1.81660498028902     -3.50092817461863      0.41667296950988
  O           3.74654203362110     -1.62130552986039     -1.49580956722375
  O           1.63656787506079     -1.59915806156910     -1.87708611755095
  Cl          2.49649026227510     -1.68630789540292      3.32898892185623
  Cl          3.61768128651478      0.46563134030860      1.72441649953652
  Cl          0.98533445497116      0.74586569152198      2.92806621937891
  H           3.47789157827125     -4.50794690722138     -0.07966159503740
  H           2.36215376081821     -4.33275994255624     -1.44084670290269
  H           2.00846238896031     -5.48252606757478     -0.15787708263785
