18
Coordinates from ORCA-job NEB E -37.137662600950
  C           0.37732148026720     -0.92916897788065      0.92891938837204
  C          -0.89538204288090     -1.39704846448547      0.57818753385264
  H           0.44916361547851     -0.31126077213986      1.81407246079657
  H           1.20428802011334     -1.61586339561897      0.79581901400160
  C          -1.01304210468665     -2.52511004370384     -0.26998104458841
  C           0.56580424003824      0.45822778816097     -0.37620470827511
  C          -0.58883588311823      1.21814365453783     -0.17932521524732
  C          -1.86490218384722      0.55491253618182     -0.35370876118421
  O          -1.92486610268038     -0.56129020315590      0.68206191235345
  C           1.89885262029541      1.11799310149916     -0.16192649258584
  H           0.59417367129560     -0.18400173732340     -1.25578464401016
  H          -0.55276886752071      2.05974938646138      0.49853457015928
  H          -1.98917530295355      0.05671242597917     -1.31776687531521
  H          -2.72647033478772      1.17175846804627     -0.11721722437263
  N          -1.11220348635894     -3.44772847553050     -0.94655070063459
  Br          2.16877093328580      2.46526353638424     -1.57965758491315
  Br          2.03425248122957      2.02500106988140      1.55421348105303
  Br          3.37501924683063     -0.15628989729365     -0.29368510946199
