18
Coordinates from ORCA-job NEB_reactant E -37.167459272660
  C           1.96560774315920      0.53073285735521     -0.23003559676151
  C           1.42011867952089     -0.04792922881761     -1.30171801269085
  H           2.24019651910186      1.56895546011396     -0.19483438551982
  H           2.15093679031357     -0.05173427282051      0.65316954696501
  C           1.09672618405388     -1.43700455575536     -1.25313357976095
  C           3.28769601862803      3.38800821591833     -2.29734670605138
  C           2.79244795421861      2.23328039563680     -2.71341822464486
  C           1.33358246231102      1.89155972419302     -2.66328415092109
  O           1.10195159114989      0.51324438714273     -2.50057918339544
  C           4.70880767217800      3.79379368607880     -2.33405989208797
  H           2.64170208256661      4.14959851494756     -1.87513793254673
  H           3.42243205659666      1.46120511820686     -3.13514058706435
  H           0.88038625879469      2.12822105381832     -3.63317227314948
  H           0.81736115380911      2.47083370049341     -1.88590900275690
  N           0.84721454925716     -2.55153385551830     -1.18418949654532
  Br          4.88468955203239      5.48076996398814     -3.34895751580453
  Br          5.31920309426351      4.13948781044466     -0.48291277432381
  Br          5.91213963804493      2.49271102457398     -3.12334023294003
