18
Coordinates from ORCA-job NEB_product E -37.174627248430
  C           3.00343671324460      0.70403456995611     -1.64889693865365
  C           1.72938573195283     -0.04262338159331     -1.97787133931817
  H           3.17460283859773      0.66091294482233     -0.56873537453240
  H           3.82586742930309      0.16061482743040     -2.13004862363302
  C           1.69186977044260     -1.34691459829850     -1.33247567899116
  C           2.92829107112298      2.15217996059455     -2.14339141785968
  C           1.95588046920055      2.93505527268911     -1.30292493517523
  C           0.90102195397270      3.55427640402364     -1.79629852875681
  O           0.84952080162728      0.36020436148271     -2.68873781406649
  C           4.29456392559447      2.82638714681740     -2.12936471405712
  H           2.57666691406968      2.14966607410291     -3.18371199758798
  H           2.17292903626392      2.95859422477397     -0.24267703590183
  H           0.66699768465431      3.53455347150144     -2.84753278501224
  H           0.22285683961042      4.09862005424916     -1.16326979808135
  N           1.67630524132073     -2.36600459688102     -0.81351155205975
  Br          4.14350879962509      4.67871611403524     -2.73775383324519
  Br          5.08705756919668      2.83892235158311     -0.34325584939060
  Br          5.55003721020034      1.91230479871073     -3.33464178367733
