23
Coordinates from ORCA-job NEB_product E -64.346310806440
  C           2.19296603919398     -1.94639052782571      0.85038460765264
  C           0.84593533521824     -1.99068695031298      1.56805367668466
  C           2.04404437915646     -1.07862319559460     -0.41112455014604
  H           2.98995601243980     -1.50674180093699      1.45819084742717
  C           0.74929161841848     -1.41069657168516      2.97036437674642
  C           2.56134390318999     -3.38129063578555      0.40099018859355
  C           3.79659165435705     -3.41156509765070     -0.46069844736862
  C           3.80510623002451     -3.89509166869850     -1.68738882940240
  O          -0.12996880682433     -2.43876710253645      1.04410781457340
  C           2.80379058626492     -4.27248816250673      1.61963851161928
  H           1.70788293904564     -3.80949102105473     -0.13963757847773
  H           4.69207893718596     -3.02198871973810      0.00258136650124
  H           2.91621303687448     -4.28302132054270     -2.15621261337624
  H           4.70742885323909     -3.91366249212413     -2.27159446083241
  F           3.23809933326605     -0.74899645467148     -0.91247571239747
  F           1.36412254045837     -1.68927380647188     -1.37869927456905
  F           1.41346626330063      0.07040144023176     -0.15504349906674
  Br          0.41919754473496      0.50651319663533      2.69458145643665
  Br         -0.76957925793701     -2.19089904918792      3.86554070149134
  Br          2.32269390532993     -1.60671122260967      4.07105723444682
  F           1.76337535350329     -4.26058059388783      2.47289873682705
  F           2.99335180862956     -5.54089016420892      1.26162437945922
  F           3.87491179092997     -3.89255807883634      2.32416106717724
