23
Coordinates from ORCA-job NEB_reactant E -64.339788924740
  C           1.41671065675757     -0.12508912474427      0.05403569557638
  C           1.59650025254868     -0.85396355278239      1.16175392860563
  C           1.83670183949622     -0.41674213863783     -1.34723101935757
  H           0.90571843824604      0.82244466328155      0.12455972567631
  C           1.04150439664774     -0.38497084930849      2.48744394106123
  C           3.09720429647093     -5.33326728158643      0.51001397597064
  C           3.15868098840917     -4.12905590929697      1.05139258166915
  C           2.68145237176567     -2.88791710534799      0.36830874619690
  O           2.15795615639895     -2.04107124278429      1.38444233664947
  C           3.61950521377264     -6.55781179151121      1.19652670881342
  H           2.68428442800125     -5.52662271967933     -0.46869312988605
  H           3.57502765686846     -3.97777120878001      2.03836471022771
  H           1.91508609093916     -3.12151115738320     -0.37593237197352
  H           3.53627282095745     -2.40331460904958     -0.12007915665663
  F           3.16478767739669     -0.60345596755639     -1.48706910114979
  F           1.25660938136820     -1.51579468491417     -1.87329574454709
  F           1.51245700638593      0.59721081882408     -2.14915873474889
  Br          0.70294930635330      1.50689928138488      2.62175499623432
  Br         -0.65020379436766     -1.34810277870531      2.76437514500584
  Br          2.26451424715158     -0.87303941661402      3.91185893640573
  F           4.11304238966059     -6.31444120313162      2.41549893288355
  F           2.66304171801030     -7.48864554973310      1.34340502598104
  F           4.60449646076115     -7.13796647194391      0.48972387136222
