20
Coordinates from ORCA-job NEB_reactant E -46.240060100240
  C           1.54847985017320      0.17358163679745     -0.01922636744026
  C           1.49211715118243      1.32537629110783     -0.67391402495610
  H           2.14066038303170      0.03915244063421      0.86577676149265
  H           0.99014760581273     -0.67423930196222     -0.36720421453419
  C           0.64163082264220      1.49572358629144     -1.91877815643548
  C           3.26827463381748      4.93622172363332      0.05358893487714
  C           3.55239389617990      3.91888696833937      0.84802038510788
  C           2.96077902195850      2.55255254964552      0.71932706023285
  O           2.10893231665178      2.49815544308727     -0.40728039021189
  C           3.87639839044443      6.29638900744313      0.20671266683256
  H           2.55635957666909      4.85093043846460     -0.75219673716045
  H           4.25942645484718      4.02562629874079      1.65888617945103
  H           2.39430613303915      2.31484306182113      1.63196421467075
  H           3.76725524314338      1.81178337891341      0.61618192951977
  F          -0.36080624733128      2.36438481207616     -1.72299406462563
  F           1.35615916192556      1.96226584306129     -2.95175812604253
  F           0.08311009795952      0.34938985663592     -2.32213003919282
  F           2.91753568480187      7.22515881937100      0.46203482224385
  F           4.74564685000020      6.35844387678382      1.24404016278338
  H           4.41369297305097      6.62577326911457     -0.69935099661254
