20
Coordinates from ORCA-job NEB_product E -46.247023346130
  C           2.29270412717872      2.53542430795973     -0.73482438921306
  C           1.13283446818121      2.93653042283411     -1.58878625377890
  H           2.06789280163217      1.56072613850003     -0.28950199477672
  H           3.16700562688113      2.39208099068455     -1.37965369575363
  C           0.79282956293296      1.85816549071355     -2.66685939871410
  C           2.60626737327240      3.54997658473714      0.37272217534994
  C           3.58313909821871      2.96513540672052      1.35652233102342
  C           3.35311639570335      2.87847441753665      2.65166744916425
  O           0.48703763662762      3.93900376330948     -1.51024164190207
  C           3.19313508571325      4.82898860358750     -0.24120610596208
  H           1.68329212937549      3.83782306209806      0.88490154621074
  H           4.51965532359702      2.63425722383059      0.92976532973591
  H           2.42927852102820      3.21819273076658      3.08994563787835
  H           4.08130697799464      2.46681287561215      3.32794057834436
  F          -0.23003910117577      2.20754021829256     -3.43627492497805
  F           1.84816349278918      1.63035279716850     -3.46364473160737
  F           0.48753494213627      0.68612053297924     -2.08590781857397
  F           3.53134546311591      5.70851996104753      0.72648548288795
  F           4.33374387119488      4.55266529839050     -0.92252355813519
  H           2.50275620360264      5.33540917323106     -0.93172601719976
