20
Coordinates from ORCA-job NEB_reactant E -29.338611391170
  C           1.39989173359856      0.27733324443855      0.14206600269760
  C           1.42818503366327      1.31186676761481     -0.68557270112477
  H           1.85930994310771      0.28177864560414      1.11216633886210
  H           0.89650960021071     -0.62376636772380     -0.15215442574013
  C           0.78163257349875      1.30488189475757     -2.04962869048464
  C           3.16671644898125      5.01869550222823     -0.17337983904529
  C           3.25870078799616      4.11834261380716      0.78950151921397
  C           2.67687887854093      2.73816880391791      0.74037825309561
  O           2.01283870855265      2.52542425691826     -0.48745077361054
  C           3.75202740837039      6.38814717935123     -0.10697681607203
  H           2.63618010260516      4.77181254569855     -1.08186078220982
  H           3.78340564824569      4.33620227251621      1.71035264426842
  H           1.97074131404281      2.60804102474899      1.57572911027319
  H           3.48174623373480      1.99659430101356      0.86493774229000
  F           0.17313668705895      0.11213395858340     -2.32350252777616
  H           1.53502259029064      1.47449949624743     -2.82739413935746
  H           0.01442830253312      2.08526913482315     -2.11029583361191
  H           4.45786386179958      6.53410732534938     -0.92398271841823
  H           4.26688967605330      6.54928331668070      0.83686335129182
  H           2.96729446711555      7.13648408342457     -0.21329571454174
