24
Coordinates from ORCA-job NEB E -35.626565622960
  C          -0.17872655173822      0.49899282817410     -0.99394378656195
  C          -1.38162996369525      1.17513999592454     -0.94548507548722
  C          -0.18922689513363     -0.90776478771877     -1.55076273698835
  H           0.71129340854409      1.06739271285423     -1.23782866774201
  I          -1.22436710039531      3.36383349549361     -0.76793353865212
  C          -0.02135011298457      0.32104468085708      1.09493175922649
  C          -1.20519063504308     -0.37330810423782      1.33129705697111
  C          -2.43195765252401      0.26976514260095      1.13384801853166
  O          -2.46856712328471      0.67203064058131     -0.59538774692422
  O           1.16031554837582     -0.29353009445836      1.32576895298936
  H          -0.01009239929556      1.39783830111011      1.25854774735094
  H          -1.15848726708524     -1.45159919298352      1.33404483417566
  H          -2.53520540856780      1.29535522688314      1.46757305724429
  H          -3.33579820246917     -0.31402347550308      1.21977839721692
  C           1.13797927613916     -1.64263355064227     -1.41305868152192
  H          -0.42413062854204     -0.81837831119624     -2.61795690855071
  H          -0.99433939104057     -1.48322042133882     -1.09294334518958
  H           1.94494483709711     -1.06075047196475     -1.85433629441716
  H           1.08211347126044     -2.59528338640555     -1.93444801968494
  H           1.37295590398586     -1.83527954325210     -0.37132917564209
  C           2.30641829641773      0.52866361893515      1.30304819014409
  H           2.53188853795739      0.86607757191340      0.28696287996273
  H           3.12920253021878     -0.08213977441947      1.66909922154198
  H           2.18195752180277      1.40177689879313      1.95051386200704
