24
Coordinates from ORCA-job NEB_product E -35.662407661760
  C           2.66220828427949      0.53435200381303      1.35098311627614
  C           2.57250932188024      1.84208957738691      0.63549492737298
  C           1.70993399999353     -0.47917086575375      0.69166177598451
  H           3.68767955466837      0.15837441459870      1.33344389283970
  I           4.46944431479944      2.89673617884676      0.50974684436009
  C           2.26186201305940      0.83915163043812      2.83342577433407
  C           2.22728933103723     -0.42958362487476      3.63555642410890
  C           1.14647161864324     -0.87075091217510      4.25085147991031
  O           1.61236246613753      2.34304230019863      0.16543680217655
  O           3.08272891304014      1.84666379563772      3.38823705077318
  H           1.26058815113344      1.28893209129228      2.81894753741536
  H           3.16037544189721     -0.97245793182565      3.69684530813599
  H           0.21007167603483     -0.33972837032212      4.20615073834067
  H           1.15226279804375     -1.78206479085592      4.82454104002032
  C           2.23032375246983     -1.90899032196556      0.76428706069647
  H           1.58220234543951     -0.20720893665937     -0.35871078077206
  H           0.72816438563857     -0.41661906087606      1.16401229347585
  H           3.20811204930912     -1.98664816969161      0.29356131651519
  H           1.54824814739672     -2.57379543117667      0.24027019669070
  H           2.30904404122631     -2.24516710200848      1.79422359732966
  C           4.32351491157197      1.45245314270041      3.93283608145814
  H           4.85468106983404      2.38015592879727      4.13691324722066
  H           4.91662818251801      0.85502390807849      3.23398147307897
  H           4.19199322994807      0.89831054639671      4.86770280225766
