24
Coordinates from ORCA-job NEB_reactant E -35.653081437250
  C           2.19320309334732      0.02083343699266     -0.11515082724038
  C           2.15692788743114      0.81212004798444      0.94421525368273
  C           1.23014638239163     -1.10336860090308     -0.34257991529496
  H           2.94840414133187      0.16985810960817     -0.87111541622695
  I           3.62421790203954      2.38819894287609      1.09455549455725
  C           2.41967851017577      1.49767789598837      4.87578535591002
  C           2.66853710101529      0.60859679919514      3.91770957082831
  C           1.56752424311132      0.01559230966949      3.09820595042219
  O           1.24759562326828      0.78744355411662      1.92473218877657
  O           3.28910777581257      2.14446966877750      5.66909060578284
  H           1.40522537725222      1.78618590921997      5.12136328699503
  H           3.67442646029758      0.31681552262378      3.65940262699952
  H           0.62887694387593      0.00276858847557      3.65610411807435
  H           1.82461352424196     -1.00477665266417      2.78787455503874
  C           1.95996295433989     -2.44463721930190     -0.40699218220005
  H           0.71553638316701     -0.93145898564108     -1.29193428582348
  H           0.48071448424052     -1.11778372541480      0.45033224550660
  H           2.69893460925449     -2.43808602352040     -1.20506211149021
  H           1.25320462663234     -3.24867315972235     -0.59674996571996
  H           2.47191582303395     -2.64977965698548      0.53107164254290
  C           4.66611690054668      1.94600660725568      5.43260591416912
  H           5.18768710899226      2.59083718610498      6.13701351475613
  H           4.93357637547015      2.22776482469519      4.41024434763658
  H           4.95086576873030      0.90439462056963      5.60977803231708
