25
Coordinates from ORCA-job NEB E -31.675190952740
  C          -0.21942159241694     -0.93848555933134     -0.50446058025209
  C          -1.07558713320754      0.17156583647976     -0.55914628264789
  C          -0.69140178328279     -2.20887695123750      0.15345026561052
  H           0.38888664887697     -1.11567625825291     -1.38651549274950
  C          -0.99847928457011      1.15668655137245     -1.71377351989360
  C           1.11211970160666     -0.27222656538029      0.81333418307893
  C           0.27448244026686      0.03521552197050      1.90030062812898
  C          -0.69577296418825      1.03199817369085      1.76825473476864
  O          -1.76581802983136      0.48787653529840      0.47792965436294
  N           2.03037332052834     -1.32566877426384      0.89554362072946
  H           1.46405190465496      0.55130184789392      0.20543167651707
  H           0.10913023544706     -0.74709274529214      2.62962907617152
  H          -0.41309404086855      1.96110091893204      1.29066686726170
  H          -1.40242535107101      1.15966465951741      2.57505013364617
  H          -1.36513448930487     -1.98096316249155      0.97441676208937
  H           0.14715512528407     -2.79884536124811      0.51421523403307
  H          -1.23406048279971     -2.80340905662835     -0.58236077761189
  C           0.34121339366649      1.87720841773476     -1.86677110050483
  H          -1.78988230077481      1.89417536832831     -1.56622190783741
  H          -1.21134963758968      0.61253987895827     -2.63787112744238
  H           0.57645961981003      2.45513729493316     -0.97576489020273
  H           0.29474754670563      2.56256643475342     -2.71074928891001
  H           1.14493440553030      1.16783887653780     -2.05046734581797
  H           2.01597631637789     -1.81900723598751      1.77507088665828
  H           2.96289643115037     -1.11462464628751      0.58080859081362
