25
Coordinates from ORCA-job NEB_product E -31.715088452890
  C           2.33122646054684      0.38010837927637      0.95041021143742
  C           1.23218242074267      1.39652489440686      0.68464151912571
  C           1.68738606006683     -0.94894208658946      1.34920006973595
  H           2.93885311730138      0.23336956635868      0.05406143296121
  C           1.28409770160425      2.08682027785685     -0.66223326962213
  C           3.28083228818266      0.95083868607543      2.03861494484745
  C           2.64936342267852      0.95254606727210      3.40239510992520
  C           2.28360913838193      2.04410586052805      4.04659996582613
  O           0.37091531303921      1.63387863886717      1.49376220984412
  N           4.53733025445442      0.20985356306430      1.98352572101060
  H           3.51987758949702      1.98475952442231      1.76116729947687
  H           2.53675657515163     -0.01981872065371      3.86446566919642
  H           2.38826307534461      3.02262009974769      3.60754738218024
  H           1.84623237571554      2.00761663912253      5.02974718319659
  H           0.98116309169819     -0.79262191873343      2.16061313951723
  H           2.43921001189701     -1.67192419923312      1.65565952574810
  H           1.14603466315423     -1.36254831098406      0.50030891463569
  C           2.50990303647733      2.99046717825437     -0.79465940164830
  H           0.37553271610230      2.68007019569355     -0.78073445957440
  H           1.30937128263268      1.32139852762903     -1.44116978731726
  H           2.49884275286059      3.75569604875315     -0.02201543157303
  H           2.50095431822644      3.48339907459180     -1.76404512979817
  H           3.43066609396807      2.41938350994574     -0.70779104576123
  H           4.39045992536446     -0.74972187936304      2.28013760495964
  H           5.20983631491120      0.62442038369085      2.61959062166996
