18
Coordinates from ORCA-job NEB_product E -30.243977598710
  C           2.83963501583340      0.97338113634719     -0.58683196544691
  C           1.34113206480010      1.18231193625927     -0.84987909231127
  O           2.99524773727352     -0.04120780491187      0.36606067476185
  H           3.35642066537941      0.70108021377902     -1.52262106322308
  C           0.97412214207637      1.24775106201779     -2.30636563687114
  C           3.43394096743321      2.31471022600247     -0.09241379235030
  C           2.83189912931979      2.75461397187898      1.20264230423326
  C           2.09814063582987      3.84299321132565      1.32753940991779
  O           0.55070356181953      1.29443754833204      0.04465959026811
  F           4.79975720267060      2.10021946593999      0.07021928198875
  H           3.33694348127276      3.08267872148394     -0.86891374702301
  H           3.02028100569011      2.09949069779916      2.04002009623975
  H           1.89900205357222      4.49677446184688      0.49404621809551
  H           1.65674746296950      4.11783829454819      2.26870351298627
  H           3.90255724700357     -0.01354277639870      0.69663117283861
  H           1.62936038494386      1.93794581644053     -2.83271362438112
  H          -0.06195503941195      1.55494131920596     -2.41718624621464
  H           1.10266428152412      0.25908249810352     -2.74359709350843
