44
Coordinates from ORCA-job R E -50.037774745480
  C          -1.09888688703244     -0.64423956273519     -3.21519825905535
  C           1.02476172852500     -2.78867626916077     -2.99634111667331
  C          -0.16205414129713     -2.77156896104272     -2.38770814813682
  C          -1.19129518117240     -1.76442015199244     -2.46943772272909
  C          -0.59919136323211      3.37459003439678     -0.82765517606668
  C          -0.73894670573060      2.24058770953560     -0.14052827302001
  H          -0.40767899735041     -3.60476906998401     -1.73863540825855
  H          -2.07150521348865     -1.96173663067191     -1.87555033777423
  N          -1.97362474803779      0.39237906353346     -3.30130459041130
  H           1.71238171356965     -3.60402304486850     -2.85319760869499
  H          -0.20911707094757     -0.50294585473890     -3.81237134778462
  H           1.35373825009612     -2.00915504364422     -3.66213107136447
  H          -1.42678913093412      4.05583034496251     -0.91349922773223
  H          -1.70919996104540      2.01119460145245      0.28454387360588
  H           0.31705700839762      3.68854244614308     -1.29252512397314
  N           0.20828728612707      1.30547069533458      0.18056719740942
  C          -3.26285277370204      0.33503210020375     -2.63639829741985
  C          -3.80354207560288      1.72661761632717     -2.31643279394738
  C          -4.27564349492437     -0.46606569449652     -3.46380041246561
  C          -1.76815369741848      1.41326674951177     -4.29698412053444
  H          -3.09740717063484     -0.18268658369764     -1.68551265588417
  H          -4.11317276272818      2.24968669948381     -3.21744718162314
  H          -3.04906954234945      2.31639189108888     -1.80320853554132
  H          -4.67015977164009      1.63178025227096     -1.66665074281937
  H          -4.48718901163173      0.04032903283391     -4.40295848465835
  H          -5.20733298147173     -0.57601007163259     -2.91518898799917
  H          -3.87997354808255     -1.45440363000203     -3.68463762861633
  H          -0.83821703237192      1.22545908132129     -4.82963037600599
  H          -1.70192510704536      2.39964095646797     -3.83105609483564
  H          -2.58121503641178      1.42619244294152     -5.02924519558005
  C           1.55952986316982      1.45080018527136     -0.32955112285463
  C           2.57834627138100      0.75105210909180      0.56930694014431
  C           1.69154698911679      0.95954812411957     -1.77484552238576
  C          -0.23701040880875     -0.02034280640103      0.53761323312284
  H           1.77422827336580      2.52484771471998     -0.30003419550641
  H           2.51627126512405     -0.32933456496515      0.46777313617942
  H           2.41894265009568      1.02327545066195      1.60995756806898
  H           3.58082540918176      1.06002876157171      0.28353984249025
  H           1.53859279122931     -0.11555507331658     -1.82676867225372
  H           2.68252853322690      1.18850953336481     -2.15906879867271
  H           0.94890411893127      1.44825127978631     -2.40013856561406
  H          -1.26448741472226      0.02994454230124      0.89392897856660
  H           0.37930557344017     -0.42300006905171      1.34211969825362
  H          -0.20289649516298     -0.71047633629631     -0.31303867094846
