44
Coordinates from ORCA-job TS E -50.013624116990
  C          -0.86022144818817     -0.75745978320322     -0.88241060936986
  C           0.64770984099030     -2.54954176918833      0.75779244878906
  C          -0.64970363738032     -2.78930501183700      0.41274910676159
  C          -1.39407033373121     -1.95493930574225     -0.42519793358861
  C          -0.49645459328554      0.18830278839400      1.02223938649554
  C           0.45148214172306     -0.47020340820631      1.77847838419012
  H          -1.18444160741237     -3.57808424806688      0.92817887723011
  H          -2.45201676956363     -2.14890156155829     -0.51932710296506
  N          -1.55147346177477      0.14411403365210     -1.66263742541316
  H           1.13674090901133     -3.19213461817128      1.47285284099480
  H           0.20092600092082     -0.73686663355792     -1.08302813640763
  H           1.30467274106649     -2.00422170646750      0.10654532018583
  H          -1.52105531710492      0.09326878958390      1.33268966004875
  H           0.11913676323449     -1.07414435282534      2.60758865450955
  H          -0.24816894511511      1.11125643121683      0.52931079886501
  N           1.78013632046117     -0.10899949504379      1.86862355002576
  C          -2.96374578351362      0.39538331846963     -1.43734950034183
  C          -3.25373987713046      1.82135576455760     -0.95735758475254
  C          -3.76785425578715      0.07469054111341     -2.70122581903144
  C          -0.79436106739960      1.17284023896382     -2.32878737844334
  H          -3.28182982329708     -0.28845561200909     -0.64616850546948
  H          -3.05729788055857      2.55212882979851     -1.73777060332048
  H          -2.64613962592516      2.06081213175903     -0.08819552820134
  H          -4.30066689162087      1.89999687615948     -0.67474249990128
  H          -3.51495566125327      0.75973481789869     -3.50700175633908
  H          -4.83283379675234      0.15999447537051     -2.50094222488947
  H          -3.55208371170626     -0.93867855720236     -3.02962570405118
  H           0.12627142642104      0.74556905757581     -2.72577163743789
  H          -0.52864277455588      2.00974080926850     -1.66798549479521
  H          -1.36947465915352      1.56648861261389     -3.16556386600415
  C           2.44056160277487      0.63571070641087      0.81331470510295
  C           2.85388084741032      2.02085840269196      1.32668037278726
  C           3.64747191842079     -0.09323622335717      0.21391727308317
  C           2.61163057077600     -0.81170024473191      2.81045007658344
  H           1.70982578068490      0.77428420557214      0.01288368593110
  H           3.61319776548264      1.93538708450812      2.10006094600091
  H           1.99187358446029      2.53285805316555      1.74687392684894
  H           3.25760367197359      2.61998840789767      0.51428351102943
  H           4.45970316139975     -0.17570528744771      0.93166092744122
  H           4.01118791222458      0.46122641046943     -0.64816024409634
  H           3.36889271668982     -1.09175630516893     -0.11475832597856
  H           2.02817540761270     -1.05287185630803      3.69794469918174
  H           3.44067937448303     -0.17327460820746      3.11493695129189
  H           3.01947146398780     -1.74551019881065      2.40395177741977
