22
Coordinates from ORCA-job NEB_reactant E -39.265677799710
  C           1.45254434301196     -0.48567647246275      0.06685160542959
  C           2.15212683437646     -1.54285164315949      0.52738133460528
  C           1.92981229051370      0.49782201286890     -0.90671606775209
  H           0.45199209429620     -0.30737541721521      0.42918179867894
  C           3.54321450019654     -1.90229163841385      0.11056530599925
  C           0.02287089141268     -3.22467682851737      4.22797943779933
  C           0.13194724280494     -3.39968296444850      2.91168036157665
  C           0.36389506462574     -2.27802997303651      1.95639460854293
  O           1.68248251416912     -2.41645812663913      1.42365895731986
  N          -0.27791900043638     -4.21280143440736      5.13313014834100
  H           0.08150750704803     -2.23270641271284      4.65665196529123
  H           0.08044035025210     -4.38773139557949      2.48042491095378
  H           0.27479252537431     -1.31257817728478      2.46984055464781
  H          -0.35934832544750     -2.31488873327371      1.12957953906533
  Br          0.54306218586824      1.81486920548006     -1.29190539958804
  Br          3.51766639646417      1.53568859329862     -0.27812933679152
  Br          2.45042499943345     -0.28644690829784     -2.65877955180951
  H           3.87142397495753     -2.75036083188364      0.70521265479434
  H           4.22946482002660     -1.07220140190470      0.26497217614297
  H           3.57294392268822     -2.17868753872968     -0.94210539758769
  H          -0.15910667570317     -5.15847228640360      4.80442255217006
  H           0.01366154406707     -4.06246162727715      6.08430784217050
