19
Coordinates from ORCA-job NEB E -40.806992421170
  C           0.60642767943851      0.64176008137074      0.57217371641056
  C          -0.72148316594866      0.18104167469218      0.74911577088522
  N           0.76241403401281      1.98383019302218      0.01602424054756
  H           1.26056190859896      0.54144753140283      1.43593352628247
  C          -0.98065628848050     -0.72660611544714      1.94193990301307
  C           1.28978943814870     -0.39389481500855     -0.82858323067802
  C           0.21711328384596     -1.09965204489666     -1.39354863509359
  C          -0.94511416777037     -0.31255714937697     -1.68393946542104
  O          -1.52628721168606      0.03963374747430     -0.25427437654473
  H           2.08256365862849     -0.98636990633204     -0.38927268890022
  H           1.66562742170441      0.43102009939512     -1.42331026904745
  H           0.05133954785771     -2.12106003720839     -1.07460330893224
  H          -1.79288610058546     -0.81996760406736     -2.13079350858044
  H          -0.75522836118309      0.66122413914285     -2.13395537629978
  O           1.64223690694027      2.65229589467620      0.50414968890433
  O           0.01009660930044      2.34619533165728     -0.85705491658237
  F          -0.24358499805601     -1.86967499185088      1.83342984789510
  F          -0.58440935434822     -0.13874448851301      3.08964883554194
  H          -2.03852084041788     -1.00992154013267      2.02692024659964
