19
Coordinates from ORCA-job NEB_reactant E -40.839263139150
  C           1.64145543791816     -0.12147401317118     -0.06989112976120
  C           1.57400200108966     -1.46884372435059     -0.14802627564375
  N           1.84037281242660      0.80577604392456     -1.12587159236916
  H           1.53936745788302      0.36158827522113      0.88952266224288
  C           1.17897534266386     -2.22797847745126      1.12212046887317
  C           4.14195072179524     -3.43786850184397     -3.51624341070215
  C           2.95423297949184     -3.22763213348965     -2.98365019435595
  C           2.56445208258896     -1.95994481698873     -2.29012667455188
  O           1.85140650085774     -2.32085293781744     -1.10913230645154
  H           4.37653703705329     -4.35410188045566     -4.02829373459174
  H           4.92388066978986     -2.69754336818259     -3.47518746493099
  H           2.17340823996199     -3.97260829852958     -3.02406792710375
  H           1.92244969887186     -1.34905596293244     -2.94179869316933
  H           3.44589444592038     -1.36501276633262     -2.02187083250549
  O           2.38358467816728      1.85182477933750     -0.84022710349814
  O           1.41182590216295      0.52638579503224     -2.23145454671046
  F           0.18893126766608     -3.10092420795976      0.85478380017759
  F           2.22871747890220     -2.95092411916908      1.57094308100701
  H           0.84585524478902     -1.56550968484089      1.93447187404486
