24
Coordinates from ORCA-job NEB_product E -40.801177181680
  C           2.51578027729703     -0.17810742780765     -1.62178009811024
  C           1.20936435316826     -0.94200389498757     -1.86861766784881
  C           2.25975836903327      0.92713148625908     -0.59777032877085
  H           3.25896997359624     -0.85015239749578     -1.18272867062611
  C           1.23200263217078     -2.38848883890996     -1.44012029246042
  C           3.15175459661947      0.38795038210695     -2.91632995328520
  C           2.20769480764772      1.19103754491824     -3.76331000499106
  C           2.37065826016812      2.47808316189580     -4.00338860656937
  O           0.24647577733285     -0.42248118734798     -2.36410632289558
  O           3.65071059518124     -0.73923361106101     -3.62069897484528
  H           3.99729305749676      1.02666629250301     -2.60851403646315
  H           1.38613572913610      0.63747057091603     -4.19284243748395
  H           1.68528695680626      3.02813121001345     -4.62363335796592
  H           3.18286395929177      3.03936552333826     -3.56989322254270
  F           3.43313747426612      1.50576553077982     -0.22835404189997
  F           1.48819120250834      1.92367771141052     -1.07014016333841
  H           1.78326577221443      0.54141425845710      0.31868641488926
  C           1.92801751930861     -3.22313498603989     -2.51970793801293
  H           0.20418890609901     -2.73320460614737     -1.31720517340809
  H           1.76326070224851     -2.49088148321985     -0.49263251490872
  H           1.34460707852797     -3.20388893200504     -3.43641772345236
  H           2.02309201279969     -4.25376757410331     -2.18828784136135
  H           2.91572962951581     -2.82545599510004     -2.73629599314219
  H           3.92356035756564     -0.45369273837280     -4.49891105050658
