14
Coordinates from ORCA-job NEB E -31.070510617470
  C           0.07296848538031     -0.40540682884192     -1.42847999693554
  C          -0.92461694319608     -0.98035389795453     -0.63443117020265
  Cl          1.58850505230051     -1.25171814796740     -1.54154738766493
  H          -0.19991341687220      0.05949911307483     -2.36878880878330
  Cl         -2.55075687547432     -0.34823580464095     -0.95736313849776
  C           0.50667192584757      1.11412717169133     -0.23050740471790
  C           0.78612124939204      0.47282665363058      0.97175064258418
  C          -0.25719254615703     -0.23061085363560      1.60989891397448
  O          -0.70303164701755     -1.44457330108292      0.51477313134339
  F           1.51286701820169      1.71757313668589     -0.87919523504413
  H          -0.42249613649982      1.65909948671294     -0.38119356024050
  H           1.81184863385299      0.19332372850062      1.16061284069831
  H          -1.22127904320612      0.26201488155923      1.68416061568193
  H           0.00030424344801     -0.81756533773210      2.48031055780443
