14
Coordinates from ORCA-job NEB_product E -31.112830255650
  C           1.87095738595348      2.02113435681856      0.50212907905817
  C           0.51031035197707      2.34762182991921     -0.06913141375878
  Cl          1.72935466808219      0.32035807305875      1.02605561744020
  H           2.65494580092026      2.07659858276117     -0.25584070853012
  Cl          0.41304129370343      1.98629451599127     -1.77916972332557
  C           2.21278360957781      2.91496830112563      1.70570407528097
  C           3.44110203137687      2.43849380815195      2.41890501432033
  C           3.41693348481333      1.86647858093848      3.60671144664774
  O          -0.42710777630965      2.75079312323862      0.53011138148103
  F           2.43440733493525      4.17996268743983      1.19584820646098
  H           1.34835869239544      2.99114225294214      2.37595163555005
  H           4.36365658267370      2.59922766826973      1.87987655315788
  H           2.49647413543159      1.71128563104332      4.14450830164520
  H           4.31748240446923      1.52274058830133      4.08414053457191
