17
Coordinates from ORCA-job NEB E -37.929894627120
  C           0.16269984583997      0.72076271788938     -0.74071643197206
  C          -0.10126255682003      1.09419750526241      0.62135565379679
  N           1.58764756854415      0.56947493984425     -1.07124592671049
  H          -0.29331160025414      1.37518888155525     -1.48610006675671
  C          -0.97611916510535      2.17636384105487      0.85765327865949
  C          -0.50334942386056     -0.94160123020241     -0.93166871168271
  C          -0.83858528855262     -1.46328069462918      0.34317644139787
  C           0.16971391576660     -1.22513483661857      1.35866328885580
  O           0.14635736488746      0.26954964917737      1.60440433040878
  F          -1.52842429743757     -0.82056738271165     -1.80294059407919
  H           0.33951087504124     -1.41866140801705     -1.43902172495375
  H          -1.87766304246028     -1.39367513436886      0.63848031167258
  H           1.18670109157767     -1.47441672921455      1.05112657994226
  H          -0.06119623966434     -1.62854567287446      2.34082823257564
  O           2.25743690038369     -0.19599547963130     -0.41806546975123
  O           1.98379293238429      1.27137052494116     -1.96769309466331
  N          -1.65394888027019      3.08497050854334      1.04176390326023
