17
Coordinates from ORCA-job NEB_product E -37.956897442520
  C           1.19264887862580     -1.54730739665258      0.56677227826705
  C           2.53125835268798     -1.40540935833129      1.30663174735768
  N           1.42156508585026     -1.28346070439957     -0.89236837931434
  H           0.50524502167507     -0.77279224527284      0.92668682292498
  C           2.35334888470657     -1.60687854006903      2.73672145703920
  C           0.57542107193430     -2.94610042195361      0.82600350966428
  C          -0.48494597705245     -3.28209262161079     -0.18528499113047
  C          -1.72816971640642     -2.85009515060599     -0.09941463357969
  O           3.57645774389765     -1.15358840415951      0.78879952019221
  F           1.57025196832320     -3.89059277491633      0.79783182963811
  H           0.17312007705716     -2.95907939822397      1.84941636933434
  H          -0.14114033636046     -3.89767562398919     -1.00310695757112
  H          -2.06890887175943     -2.23608118001683      0.71877821712350
  H          -2.45861398957489     -3.09910921000024     -0.84774747974180
  O           1.19330334197951     -0.15779270197640     -1.25154317314514
  O           1.80720911491470     -2.19169180860715     -1.57005360177853
  N           2.18594934950144     -1.74415245921467      3.85927746471974
