18
Coordinates from ORCA-job NEB E -40.246328990070
  C           0.25876429322197      0.43698661577444     -1.08550920900966
  C          -0.25677041385005     -0.94026874926034     -1.25243018518688
  C           1.43636890883145      0.89260189229213     -1.59445226235142
  H          -0.51842837924161      1.17114809289502     -0.90145281332197
  O           0.68315109644690     -1.85495851750542     -1.48864909876262
  C           0.52764920279799      0.23768466380506      1.15458364137161
  C          -0.47688085886521     -0.67742885680022      1.53703335804268
  C          -1.77695579445400     -0.32650885522687      1.61136832047923
  O          -1.42649480527646     -1.20770275312219     -1.15632527164543
  Br          2.31872617954018     -0.23919162842547      1.37962325446350
  H           0.34129719060093      1.30311867130796      1.22003377045753
  H          -0.18204492064736     -1.70201164257738      1.72350768025845
  H          -2.09758627890159      0.68018440755057      1.40556613741727
  H          -2.53195367300760     -1.04124228615662      1.88465883235485
  Br          1.80052985580542      2.73730964573043     -1.61665322056524
  Br         -1.24630396292579      3.42592904736381      0.97475737630015
  Br          2.85628488580364     -0.16156577004851     -2.18701416546796
  H           0.29064747412100     -2.73408397759636     -1.60864614483417
