18
Coordinates from ORCA-job NEB_product E -40.317504694030
  C           1.52817965654643     -0.63316370456252      1.57107912333162
  C           2.75772625226387     -1.54028515719162      1.85669659317033
  C           1.39287111130003     -0.24247817728595      0.10850612166061
  H           1.76097119395842      0.30122553097149      2.10371567531636
  O           2.86110398052617     -2.67898808764626      1.18138986179524
  C           0.23346254762720     -1.19507385015349      2.18545487178182
  C          -0.08627398594006     -2.62495317518299      1.91408589738251
  C          -1.24462989674245     -3.01831710602864      1.41299069093280
  O           3.56615403703321     -1.21102193359121      2.66727676190162
  Br          0.37956234753090     -0.98486175984333      4.16799675844463
  H          -0.60997190347165     -0.55488512861967      1.90890078540984
  H           0.65339456063992     -3.34749059424174      2.23190480194294
  H          -2.00994563603782     -2.31674066250474      1.12421594977027
  H          -1.46491692605266     -4.05965755194784      1.26163732003918
  Br          0.07443780110003      1.20409405289520     -0.09481208051782
  Br          3.12443743906341      0.42020658145898     -0.55640429814237
  Br          0.81353874976251     -1.69071677188540     -1.08627131577374
  H           2.15569867089253     -2.86879250464027      0.54223648155416
