18
Coordinates from ORCA-job NEB_reactant E -40.312517237570
  C           1.30014637761693      0.01226512199631      0.00935922027313
  C           0.87054436542067     -1.12789593816204      0.59797669103527
  C           2.45048825373001      0.09662797389563     -0.87632662832492
  H           0.74727912738792      0.91300796856090      0.21279767677690
  O           1.42051173760043     -2.33956022008261      0.46193505847791
  C          -0.18303659249037     -2.51873192770564      4.46919832195976
  C           0.24080408424276     -2.57865292134716      3.21953053164099
  C          -0.63832783492344     -2.24609299515827      2.05115018469502
  O          -0.20453900801493     -1.06127111246735      1.38206304994333
  Br          0.91801509579042     -2.94264224275275      5.93970372425240
  H          -1.18710657222340     -2.24401154759605      4.75269663826966
  H           1.25951133284327     -2.85419479367654      2.98758512465330
  H          -1.65416609005736     -2.01514635571121      2.37709108845265
  H          -0.65403902421795     -3.08520938287789      1.34649223796259
  Br          2.75290232849324      1.89621330059463     -1.51136301255124
  Br          4.16009181358293     -0.52762457906986      0.00751086444396
  Br          2.26313058679850     -1.09336585339067     -2.51057987701825
  H           2.16719001842037     -2.34821449504941     -0.15342089494247
