22
Coordinates from ORCA-job P E -32.705798148350
  C          -1.34570493918674      0.34617307082214     -2.36794740283063
  C          -0.09015377996935     -1.69940748818356     -1.06386159111461
  C          -1.47681230312572     -1.93419829514067     -1.56868655415027
  C          -2.08815713273354     -0.94519512899697     -2.20132459136027
  C          -0.74909008545895      0.77490631335490     -1.01377481164068
  C          -0.02682920695007     -0.37232657813707     -0.28332862427816
  H          -1.94202325870128     -2.89245119469404     -1.40199105534255
  H          -3.09088692786564     -1.02413322305511     -2.59053905860521
  C          -2.24148642896068      1.43901425799716     -2.93762848001869
  H           0.24723984426877     -2.51328943192849     -0.42327152818529
  H          -0.51600072684362      0.19153723792542     -3.07017849233393
  H           0.59513646854881     -1.63687592318711     -1.91582283947598
  H          -1.56286607540063      1.14565056746797     -0.38819555534996
  H          -0.50975975380476     -0.54064017677953      0.68421765364963
  H          -0.06318582383258      1.60617407997639     -1.18518647888884
  C           1.42679060646105      0.00532800557375     -0.00981101382680
  F          -1.51401361773926      2.57885077770483     -3.18737464377432
  H          -3.03234056856634      1.71859839063876     -2.23343529291103
  H          -2.68136604680152      1.13400241228776     -3.89293148185676
  F           2.04698289084642     -0.96832934515165      0.73669639808506
  H           1.49719081786157      0.93197184715644      0.56930884861762
  H           1.99891604795405      0.10029982434867     -0.93899340440835
