24
Coordinates from ORCA-job NEB E -44.428774566870
  C           0.30365981185704      0.79769498523320      0.51560782719715
  C          -1.04221384029961      0.78320712637677      0.87251166448066
  C           0.81423875158141      1.93732087825774     -0.32639780009475
  H           0.99870115210870      0.45051265286371      1.27174028104579
  C          -1.42537827319749      0.06298771301471      2.16783612038604
  C           0.30302847184400     -0.75921619941194     -0.87226298054995
  C          -1.04817886778158     -1.04990759455178     -1.07827371233009
  C          -1.92491880742027     -0.02302110429026     -1.41978228187112
  O          -1.96900847261595      1.03094915201422      0.04052017473381
  O           1.07557610287304     -1.73609256938510     -0.34775939958091
  H           0.79526123385461     -0.10716647029858     -1.58861581232132
  H          -1.43641217643133     -1.91599610569044     -0.56040381185407
  H          -2.97738426424245     -0.24718015370537     -1.49822350632430
  H          -1.58140226355733      0.74943277422482     -2.09349813456957
  H           0.08369860734015      2.22209128324112     -1.07796602463387
  H           1.76361251595818      1.70530672446887     -0.80355879337796
  H           0.97420895711955      2.79493714869480      0.32848335112811
  Cl         -0.73946351686245     -1.58361324204294      2.24825130697482
  Cl         -0.76803995273104      0.98900529351568      3.54033413325287
  Cl         -3.17606139285663     -0.04530679953810      2.33525678487559
  C           2.46991835749903     -1.53931772201334     -0.40724238608422
  H           2.78199312532064     -0.70002122447047      0.22157652772458
  H           2.80195338111874     -1.36165800154843     -1.43547185397430
  H           2.92261135952105     -2.45494854495888     -0.03266167423299
