24
Coordinates from ORCA-job NEB E -44.993094544330
  C           0.18296130697935      0.80720321950326     -0.20159957030026
  C          -1.06955402173673      0.73736264775554      0.43428069700722
  C           0.18404107812669      1.12263415922075     -1.67727344769996
  H           0.99193227338940      1.29912103265546      0.32653997710629
  O          -1.24047484922998      0.93034842397347      1.76815725571807
  C           0.57579547904224     -1.12116480823466     -0.10585224367307
  C          -0.52069220170841     -1.73086321696026     -0.71837093222653
  C          -1.79412007266182     -1.51121608528153     -0.11861287375159
  O          -2.03396019473220      0.10057656353666     -0.13584332918642
  C           1.94646630207563     -1.33182578902842     -0.69954748183610
  H           0.62909798256731     -1.16171704216837      0.97869974851788
  H          -0.47373919118677     -1.92021282347698     -1.77990262282525
  H          -1.86653155027907     -1.70178075894667      0.94930102578011
  H          -2.65591859389057     -1.87310076869139     -0.66466808036329
  F          -0.06608879688280      2.47047344774328     -1.83565432198163
  H          -0.61126710320884      0.59069347743997     -2.20582300769677
  H           1.15529479451230      0.94062157557920     -2.14139527207824
  C          -0.29074845253081      1.68475203947936      2.48954958886494
  H          -0.06264167873054      2.62437878518482      1.98026667595875
  H           0.63312993829740      1.12107121206422      2.64891526657974
  H          -0.75244446138367      1.89582068211451      3.45265504520346
  F           1.94855246718561     -1.28366429694246     -2.05155943648282
  F           2.82214786810224     -0.38054242823576     -0.28475743994771
  H           2.36876167788404     -2.30896924828400     -0.40750522068683
