22
Coordinates from ORCA-job NEB_product E -39.623546902560
  C           3.03767659617516     -1.91986151038314      1.09140188956825
  C           1.66715454578637     -2.09439494588324      1.75354637056766
  Cl          3.22287453378338     -0.29705380614402      0.35608588400132
  H           3.80104724745672     -1.99410227665988      1.87781214137487
  C           1.12611793103774     -0.90905990555467      2.50038643495325
  C           3.29727432413697     -3.01824384240917      0.05615629454886
  C           2.62795683598116     -2.77634369809802     -1.26315761058971
  C           1.49991107172785     -3.36436612486628     -1.61198977054288
  O           1.10185729859947     -3.15483714530690      1.69523719773356
  N           4.77116647252614     -3.20013561751426     -0.12370607487577
  H           2.92472011361473     -3.95382787856108      0.49727238126232
  H           3.12364518961306     -2.07360711256212     -1.91684551189979
  H           0.99937219990759     -4.06366547069430     -0.96289041985650
  H           1.02661302588328     -3.15615057778744     -2.55509712314548
  C           2.08612395083756     -0.40203782645185      3.57774697294426
  H           0.17846723275184     -1.20741804971437      2.95178642944270
  H           0.93236712463667     -0.11053722277534      1.78119331608596
  H           2.35113092885419     -1.20545421378186      4.26088882012622
  H           1.60308270903834      0.38655893311690      4.14853648257606
  H           2.99342490725908      0.00336544261960      3.13970664885731
  O           5.16946340901890     -3.42836267040591     -1.23443147826566
  O           5.45285235137383     -3.13346448018262      0.87036072513317
