20
Coordinates from ORCA-job NEB E -33.642672519020
  C          -0.18343807926596     -1.20099472078328     -0.56856132521739
  C          -1.53611317184644     -0.93680418246061     -0.30781210641801
  F           0.52282683789232     -1.85765730064120      0.39014805650892
  H           0.14020733505833     -1.52173769030904     -1.55320934223965
  N          -2.34876345289072     -0.59960288837653     -1.38729868656263
  C           0.54291245238888      0.64935118158513     -0.34349588042628
  C           0.15200978196549      0.89508944272392      0.97894269283674
  C          -1.22886669556206      0.96916402922334      1.24535711111670
  O          -1.90312052078398     -0.56231154323772      0.86452736079038
  O           1.82810739820593      0.57417340386234     -0.77921558397601
  H          -0.05807453060706      1.08951768757902     -1.13679680022287
  H           0.80515583847738      0.58932188224512      1.78125369754545
  H          -1.83324581873511      1.55576246320037      0.56204986398348
  H          -1.52949380875739      1.05964930033897      2.27928069106201
  H          -3.31184510191002     -0.43614519805388     -1.13686964878353
  H          -2.22372984273152     -1.12833089760991     -2.23447482427030
  C           2.83556889739267      0.27169211394887      0.16720118527887
  H           3.74981085717235      0.14247261076222     -0.40937646128159
  H           2.61539324917713     -0.64792224480484      0.71257053836427
  H           2.96469837535980      1.09531255080772      0.87577946191146
