16
Coordinates from ORCA-job NEB E -33.260859370910
  C           0.01179030476176     -1.43261864410402     -0.23485663687860
  C          -1.28607930412849     -1.16752275128256      0.17873726225115
  H           0.73030240106095     -1.66211615807981      0.54075523382981
  H           0.15525380389738     -1.97055625393720     -1.16111643397300
  Cl         -2.54868513677843     -1.21272598389465     -1.04811363307514
  C           0.56464859230137      0.41426732188671     -0.54973461298440
  C           0.23923646552960      1.06879799773574      0.63596590292660
  C          -1.13551739605397      1.08473692805581      1.02379096677239
  O          -1.52421646104159     -0.45810377652099      1.21919415090588
  N           1.98012764412315      0.27694762318487     -0.85447389778271
  H          -0.01765701845253      0.57821724400181     -1.45089780965234
  H           1.00524546642580      1.13795971372354      1.39527288350622
  H          -1.84595459991653      1.39441907029551      0.25964662685401
  H          -1.35703879262022      1.50954821387132      1.99525396047730
  O           2.73661387881374      0.10298320319701      0.07038587995183
  O           2.29193015207800      0.33576625186691     -2.01980984312899
