16
Coordinates from ORCA-job NEB_product E -33.308833837950
  C           2.89668878532335      0.95091548231385     -1.58987077340373
  C           1.42700922164853      0.77884867229024     -1.36519574020013
  H           3.45007230745508      0.33465496061402     -0.87636247954238
  H           3.13264928235440      0.57340141795294     -2.58911046997424
  Cl          0.97293261627992     -0.92797391934150     -1.39275006008269
  C           3.30979705586713      2.41641076972411     -1.45014397230487
  C           3.09951372289048      2.92994971576007     -0.05201840195018
  C           2.46260460802330      4.05109583404700      0.22424307283424
  O           0.60792809894274      1.61609565206285     -1.19723964781221
  N           4.77611203320568      2.53909455222732     -1.71495734776443
  H           2.79569456738253      3.05611766931245     -2.17212093277444
  H           3.53256006595970      2.31646477668002      0.72623126309692
  H           2.03338495525283      4.66721744371016     -0.54741920151369
  H           2.33242572664906      4.38818610135176      1.23728063352326
  O           5.49012645779959      1.67811977675321     -1.26695314867243
  O           5.13580049496567      3.51060109454150     -2.32661279345900
