16
Coordinates from ORCA-job NEB_reactant E -33.285768467640
  C           2.22433088018728      0.21889894371118     -0.73263206878931
  C           1.33113297411883      1.05449069750414     -1.23688278058510
  H           3.00171123680810      0.53944733905558     -0.06482233452569
  H           2.19871572096693     -0.82069753529861     -0.99204464448992
  Cl          0.10905441566254      0.52576909937216     -2.33303172972886
  C           3.87148281383477      3.01216914082339     -1.78617230970446
  C           3.42027795722549      3.25024452561706     -0.56109903254994
  C           2.02592910814658      3.01100276219213     -0.08836991279359
  O           1.18070602111271      2.38454243112785     -1.02453869255765
  N           5.23449135114896      3.29480701990547     -2.13564705777039
  H           3.28788476726086      2.61120305963078     -2.60006291981212
  H           4.09879466021540      3.66869164072866      0.17286670338465
  H           1.55513166068906      3.98063957331990      0.11375116947383
  H           2.04920665132996      2.44632393540352      0.85451920240452
  O           5.97133755495036      3.72006285732336     -1.27245262667205
  O           5.55371222634214      3.08230450958343     -3.28368096528391
