20
Coordinates from ORCA-job NEB E -32.994003377310
  C           0.16008609429083      0.94734804558841     -0.08648822005304
  C           0.05602852841036      0.88961132428778      1.28370638592535
  O           1.35978156494146      0.66561813995615     -0.69477472212913
  H          -0.51835026230054      1.58270335088767     -0.64900069957513
  Br         -1.79262571725737      1.52196097661423      1.83489871542480
  C          -0.77808275548885     -1.10408872960268     -0.36548808492140
  C          -0.75847525700487     -1.63937320976651      0.92733035848175
  C           0.40385143424124     -1.70340748168669      1.65468021010103
  O           0.66181853854486      0.20558984613117      2.09624550008217
  N          -1.95662898684066     -0.91202018611605     -1.00958199378295
  H           0.08697624507961     -1.24293927982018     -0.99905180881931
  H          -1.70556558252989     -1.70443734967021      1.44842474513781
  H           1.35544490292987     -1.72032454573376      1.14809116851920
  H           0.39464386603094     -2.06561720632497      2.66811330784826
  C           1.83481430035469      1.67646554494796     -1.55578540088186
  H           2.71892143843610      1.27136119969214     -2.04406796454126
  H           2.10741480443805      2.57761455845494     -0.99740165330407
  H           1.08448089623591      1.93867153668487     -2.31072207453163
  H          -2.76430652006956     -0.71666704187864     -0.43702774213846
  H          -1.95022753244215     -0.46806949264562     -1.91210002684216
