20
Coordinates from ORCA-job NEB_reactant E -33.021048563420
  C           1.03615467029844     -0.12658286279693     -0.30836697041700
  C           0.90106740073298     -0.99853426692745      0.68846496178905
  O           1.53912279756565     -0.48577541541534     -1.52101533760675
  H           0.74706468091640      0.90799640509293     -0.17282558316802
  Br          0.06651253580427     -0.32678816595372      2.30247486370600
  C          -0.69212219864226     -4.11581081610205     -1.15728738288072
  C          -0.72874456022810     -3.28315019420720     -0.11786337329533
  C           0.31518265223630     -3.27156837707765      0.94637951157383
  O           1.31899578732733     -2.26073305277138      0.72133348050088
  N          -1.65709606703699     -4.20740960873143     -2.13190098033994
  H           0.09501116226989     -4.85349024193582     -1.23819892291952
  H          -1.50923687343653     -2.53863259134076     -0.04099498345060
  H           0.88298805208892     -4.20262221817094      0.96221161252082
  H          -0.13251910665028     -3.09766027800787      1.93438200058717
  C           1.90214554077426      0.58857043071709     -2.35599601703651
  H           2.19264987520919      0.14882878791725     -3.30813452130192
  H           2.74813155010999      1.14646107617760     -1.94117168360532
  H           1.06234461879085      1.27446676945440     -2.51131579235536
  H          -2.29103089966477     -3.42537025327377     -2.19208905223617
  H          -1.36622161846555     -4.57409512664697     -3.02278583006458
