25
Coordinates from ORCA-job P E -47.233421256320
  C          -0.99086357108386      0.69605031401312     -2.05482649825052
  C          -0.71883763911363     -1.80941021246503     -0.45829981136401
  C          -0.96947794593160     -1.78605113458505     -1.93195421840651
  C          -1.08307013875421     -0.68260906557549     -2.65060159924424
  C          -1.15391946633019      0.66368817006270     -0.53275324680560
  C          -0.27866950017465     -0.43974798871810      0.06103300684188
  H          -1.05561770416176     -2.75045287517772     -2.41036792830315
  H          -1.24682672447339     -0.72336124213682     -3.71743689668452
  C          -2.06200200474966      1.58825809737780     -2.66688856749224
  H          -1.62987034639108     -2.13069622065338      0.05411266030168
  H          -0.03099720009774      1.15515034769284     -2.32483822563605
  H           0.06036522971289     -2.54314056474734     -0.24073075709010
  H          -2.19687241773719      0.44756422186537     -0.29083332915526
  H          -0.36954427240878     -0.41556776695600      1.15319901830320
  H          -0.89099636498104      1.63282456862051     -0.10834916107182
  C           1.20055324663794     -0.22551895253257     -0.23243139351584
  F          -1.93239943314879      1.70718500918721     -3.99741609920462
  F          -3.30499992945408      1.13539473217187     -2.44515362207156
  F          -2.02314561529224      2.83819418473800     -2.17391859731031
  O           1.99637039367261     -1.10592311719138     -0.42042549943252
  O           1.52789151288519      1.07100714464680     -0.21798641957982
  C           2.89995162194464      1.37353976471848     -0.43780388644451
  H           2.97283835581046      2.45774063029259     -0.45422105256911
  H           3.23432975729378      0.94886194637792     -1.38633764626729
  H           3.51164015632639      0.95984000897367      0.36598977045283
