25
Coordinates from ORCA-job R E -47.133736669100
  C          -0.68524636920115     -0.16721065680803     -2.74470131243667
  C          -0.24911358866231     -2.95755525437372     -1.67567537497630
  C          -1.41325603886878     -2.32044647498813     -1.75374472856815
  C          -1.60187129183117     -0.93899597729715     -2.15789496145550
  C          -1.45361062460639      1.23462176953079      0.80254880922987
  C          -0.59385061201578      0.23599186873226      0.65908623103997
  H          -2.32548537159231     -2.83157906212099     -1.47456062102003
  H          -2.58093553544935     -0.52288914910530     -1.95379118210287
  C          -0.97022882871456      1.24580786292726     -3.11833854173648
  H          -0.19734128960656     -3.98462598524878     -1.36210820189312
  H           0.30571484718806     -0.51084323657218     -2.99415835726636
  H           0.67930757729601     -2.46171574491984     -1.89767356219894
  H          -2.43813232506083      1.07506777105383      1.20846343836215
  H          -0.83806005134906     -0.78632426392374      0.91866755307540
  H          -1.19867300396972      2.23623562990086      0.50845724383271
  C           0.75875684795178      0.41661144272489      0.07967895776682
  F          -1.34569056655576      1.38087360685464     -4.40578703775050
  F          -1.94506133082894      1.81054863503819     -2.38752165118491
  F           0.10989089301105      2.03529448375546     -2.97260986877411
  O           1.41640444733967     -0.48049969142491     -0.39480848604818
  O           1.17113690519126      1.68406764486702      0.14254050317330
  C           2.43318674247176      1.98330902561748     -0.43542840970257
  H           2.82235081537188      2.85223102760940      0.09108946668180
  H           2.30630487715415      2.21463640518496     -1.49486485895827
  H           3.11041287533703      1.13344832298574     -0.33012504708907
