25
Coordinates from ORCA-job TS E -47.122690340600
  C          -1.10304096318906      0.18948628101218     -1.35664490334146
  C           0.37345833888035     -1.97182356441410     -0.16814322346550
  C          -0.88267438416685     -2.12321394564881     -0.63968353343815
  C          -1.60020331291489     -1.07432893829474     -1.26432941510324
  C          -0.97116412836540      0.70568794240416      0.83873396870563
  C          -0.21121190703863     -0.23441190764702      1.45653091589944
  H          -1.43744809681041     -3.01981997461491     -0.40268497813490
  H          -2.64646491450289     -1.23976420958300     -1.48223411884741
  C          -1.95095455838174      1.28021360038768     -1.92838082871611
  H           0.84037336040562     -2.74313659760989      0.42057660766120
  H          -0.04715681222572      0.40125946403774     -1.38291560262250
  H           1.02568033215934     -1.20057170523217     -0.53414453752586
  H          -2.04361843256030      0.68139641326564      0.93488598441304
  H          -0.65923631659641     -1.04153475467027      2.01440021849440
  H          -0.52883201496159      1.64158673004810      0.54274821690130
  C           1.23494828907075     -0.06698326880124      1.67532257010595
  F          -2.06046758027025      1.19624707621527     -3.27100497255423
  F          -3.20796522545873      1.27086188292979     -1.45490549708353
  F          -1.45588972371022      2.50145446174348     -1.67494545915220
  O           1.87903149398567     -0.68450989434888      2.48689293538552
  O           1.77460701029344      0.86701108258556      0.86669205716260
  C           3.15995529712555      1.11569946311952      1.05018012904523
  H           3.43006030504962      1.88087930063212      0.32684488262731
  H           3.73654945855216      0.20380169641134      0.87955161978702
  H           3.35166448563059      1.46451336607245      2.06665696379644
