33
Coordinates from ORCA-job R E -39.864485301110
  C          -1.69169660589986     -0.15474058482126     -2.87877274666623
  C          -0.54598612875410     -2.94576773594303     -2.54483427919701
  C          -1.83404902087057     -2.61371858091641     -2.51070674885146
  C          -2.35308912134170     -1.26401510265721     -2.51706577277588
  C          -0.71575290476236      1.75514033083470      0.46075800205376
  C          -0.03386710941047      0.70271673643307      0.05042472845000
  H          -2.57958095894431     -3.39591564010225     -2.44630359238551
  H          -3.38224828670167     -1.14230823768808     -2.20103673119251
  C          -2.32738295042618      1.17042183432708     -2.80366467732653
  H          -0.22706759378213     -3.97345851721648     -2.52762460493403
  H          -0.67233857172402     -0.18680906250284     -3.23289785157444
  H           0.23583886994288     -2.20615842899678     -2.57410398192004
  H          -1.77734657052286      1.83025678942596      0.29143087746632
  H          -0.56017209599415     -0.09428516293978     -0.46192208757495
  H          -0.26252428455785      2.58429519225949      0.97595773391974
  C           1.44580818554269      0.45380050957341      0.19392892549026
  O          -3.48915109941298      1.32755409113244     -2.49548318905273
  C          -1.40487172973762      2.31963202499273     -3.12569662295467
  H          -0.61191960909764      2.35249370633091     -2.38012173834714
  H          -1.95253794672771      3.25753989080066     -3.11250936145732
  H          -0.95213215978086      2.17116462892697     -4.10380136051414
  C           2.13842877128161      1.49758881935897      1.06924402344151
  C           1.63530906264564     -0.93694898578436      0.81212665327455
  C           2.07063448131729      0.47313848438654     -1.20799227787714
  H           1.69311020287241      1.52087377407609      2.06095877142135
  H           2.06017859447892      2.48767354595881      0.62682894995660
  H           3.19353920580983      1.25378644263379      1.17264503216192
  H           1.18285611994294     -0.97441673791809      1.80060281268588
  H           2.69385245858538     -1.16995985545782      0.90718785904987
  H           1.16824342397210     -1.70066106023819      0.19326783796272
  H           1.95412756463633      1.45369411775151     -1.66504835657744
  H           1.59502959178887     -0.26415429343453     -1.85070565565206
  H           3.13268821563216      0.24418706741398     -1.15185057050326
