33
Coordinates from ORCA-job TS E -39.846136703010
  C          -1.58847392763790      0.16337054807425     -1.45356975715422
  C          -0.38250099617220     -2.15203295638532     -0.28304896341304
  C          -1.71797487369051     -2.08778402107097     -0.54184902725654
  C          -2.30742521132964     -0.95931017520066     -1.13027299985181
  C          -0.88024857452967      0.61101335715285      0.68872837026315
  C          -0.05249523052288     -0.37684581624469      1.12406631612392
  H          -2.37703279941077     -2.83012631488769     -0.11272492418051
  H          -3.38608499310842     -0.88158141985884     -1.14759470791204
  C          -2.28596803319949      1.38801100790744     -1.86957412171309
  H           0.00918691774868     -2.98438660703440      0.27738818418696
  H          -0.54043421843473      0.10536210918664     -1.69528571293957
  H           0.32345385996526     -1.62550991152754     -0.89554192041455
  H          -1.91319657866130      0.63083598694527      0.98610205772103
  H          -0.44122971517326     -1.08811834522008      1.83836904233460
  H          -0.49210302161366      1.53142137960717      0.29119064854802
  C           1.45715404529291     -0.19990098214945      1.18099805833833
  O          -3.46885684382689      1.57443141926252     -1.67719360887597
  C          -1.41070906442704      2.41132078408219     -2.56037190199204
  H          -0.55058114126640      2.65458724050707     -1.94069062408904
  H          -1.97929816800963      3.31365626679287     -2.76786489408172
  H          -1.04481155823091      1.99345096277384     -3.49684596256404
  C           1.72056611882846      0.73757865163959      2.37473188278363
  C           2.17871550227379     -1.52253241135167      1.45738534569141
  C           2.04778353048094      0.43872321559113     -0.07856119610884
  H           1.33227999825903      0.30174585696052      3.29241826514762
  H           1.23563311062287      1.69865567760433      2.22341151319681
  H           2.78882940740129      0.90339734804600      2.49774845730580
  H           1.71154328814003     -2.04993689004377      2.28599301398805
  H           3.21638326089235     -1.32917004264879      1.72222708740108
  H           2.17361518903279     -2.16934760336154      0.58511001671270
  H           1.61206553240092      1.41568896212286     -0.26868071157587
  H           1.89185761365496     -0.18733581869704     -0.95407480354666
  H           3.12035757425100      0.57066854142591      0.04787757792645
