20
Coordinates from ORCA-job NEB E -28.373837866230
  C           0.25128636924235      0.53538149518916     -0.86837591793223
  C          -0.82446995464932      1.42732389334005     -0.73562849440054
  C          -0.12685919038185     -0.91026942339512     -1.13495586247816
  H           1.09853865009108      0.88114831348789     -1.45431293720754
  H          -0.66597477997055      2.49556906943475     -0.91476920743266
  C           0.82677416957824      0.74617737950514      0.95053099074249
  C          -0.23938997183318      0.20367531939597      1.66774242924082
  C          -1.46828534398063      0.91760883194436      1.57100327607389
  O          -1.84223517921195      1.08236158715926     -0.00723400681568
  I           2.78854407358920     -0.04459129686661      1.21430438859017
  H           0.93078116944875      1.82345920473271      0.95963953633340
  H          -0.26209070295748     -0.85732785688585      1.86616109102613
  H          -1.42956890972229      1.96814117333183      1.84877103721595
  H          -2.34307396496324      0.42128158194667      1.97460231729190
  C           0.98949728950559     -1.94346718588973     -1.08315492630590
  H          -0.53583143145555     -0.90675862388632     -2.15140548279092
  H          -0.94037695688480     -1.19963828973647     -0.46808105896046
  H           1.87895563877923     -1.58320746905554     -1.59546770262313
  H           0.65972974789596     -2.85506976500934     -1.57694342239628
  H           1.25404927788046     -2.20179793874283     -0.06242604717123
