20
Coordinates from ORCA-job NEB_product E -28.420838546890
  C           2.42682908179221      0.32537952692785      1.22959837154430
  C           1.22547980754237      1.22645463744505      1.01489341766662
  C           2.27694583620236     -0.94085385764949      0.38008393213999
  H           3.28886943609256      0.90205555724939      0.86752908961401
  H           1.26886478927690      2.16427878907799      1.60628220926958
  C           2.56991665071904      0.13070040224276      2.74478478173345
  C           1.72519291906102     -0.95495846221133      3.30511920028868
  C           0.75798917127010     -0.73774430653615      4.17813007973144
  O           0.30575842275296      0.99825018427397      0.28654363324072
  I           4.65619053558786     -0.22067466767011      3.33823083012658
  H           2.33926336560207      1.07421987387221      3.24489457944920
  H           1.94988514563101     -1.95839243619922      2.97310930270837
  H           0.52213646985765      0.25196507191244      4.53500421057232
  H           0.15709976753809     -1.54075393720595      4.56748557259584
  C           3.51364377372939     -1.82786938423731      0.33724676785951
  H           2.04280977182898     -0.61059509102536     -0.63478908692499
  H           1.41460269890894     -1.50920429900871      0.73365754810442
  H           4.39453491074761     -1.25136733815699      0.06211526266394
  H           3.37548116631976     -2.61095218058675     -0.40458456040714
  H           3.70270627953911     -2.30733808251429      1.29396485802319
