20
Coordinates from ORCA-job NEB_reactant E -28.410627593620
  C           1.82377807172228      0.14142712758459      0.21876807128423
  C           1.30326310303110      1.20689738440580      0.81486164837903
  C           2.14698769477520     -1.23644673978080      0.72225006615783
  H           2.05279400283977      0.27978799955876     -0.82911615690769
  H           1.16109797445634      2.11248535989811      0.23720064264362
  C           2.58767437274407     -0.75504980802187      4.35258037577293
  C           2.19599131563651      0.34205274326993      3.73618677997457
  C           0.84927077581613      0.49085635509690      3.08200072003209
  O           0.84468201898272      1.46911651783250      2.07140705393840
  I           4.45750587920356     -0.94123520820185      5.29901059339081
  H           1.98297023598032     -1.64337320594713      4.43021214044164
  H           2.82663609043682      1.21753280799265      3.67697301468505
  H           0.14264920428393      0.87380827279164      3.83068223960519
  H           0.47228157939627     -0.47034866737720      2.71491196362993
  C           3.31090857679375     -1.83883054749085     -0.06141712487407
  H           1.27026808005206     -1.88355815417602      0.60112994910800
  H           2.41083660975785     -1.22227463832601      1.77902767421595
  H           3.06674652073544     -1.90897237864496     -1.11906490799779
  H           3.53903740216497     -2.83685522822740      0.30607493788773
  H           4.19952049119094     -1.22101999223678      0.04682031863253
