19
Coordinates from ORCA-job NEB_reactant E -30.086055351520
  C           1.72612409137240     -0.02838238168673     -0.06993681464716
  C           1.43541658010684     -0.25414667517134     -1.35070092015283
  O           2.05762473621400      1.20789138793483      0.46846965411306
  H           1.67379959969784     -0.86883080302739      0.60359727516253
  O           1.07609307996189     -1.51887251807201     -1.71675476008170
  C           4.28648751982524      2.32121497992541     -3.31789557370899
  C           3.52686214625828      1.72466913049948     -2.41519481370506
  C           2.03537059028337      1.84931687655265     -2.34841095000794
  O           1.38853770528756      0.58409095832204     -2.42260659091177
  C           5.77272077520066      2.21342684456335     -3.38123913391314
  H           3.83227549827504      2.95234093863520     -4.07162166883983
  H           3.96562796300233      1.08854881383101     -1.65870599152950
  H           1.65299472441674      2.40289703795942     -3.20948372637388
  H           1.74283705179159      2.36026202739923     -1.42531149227925
  H           2.50506240457012      1.06247573629464      1.30679825528089
  H           0.86794483208222     -1.48851066000128     -2.65964975436821
  H           6.15089198569857      1.55848840616781     -2.60067329369410
  H           6.22548809297017      3.19791517712166     -3.26546373631124
  H           6.08014062298517      1.82250472275202     -4.35071596403189
