18
Coordinates from ORCA-job NEB E -29.544768567240
  C          -0.34265952425938     -0.45635277247303     -1.28887916664913
  C          -1.54169297834684     -1.02223177380223     -0.85025727228270
  Br          1.13986568242588     -1.58210923711848     -1.72953882337235
  H          -0.39145396326982      0.37840342383821     -1.97807025661642
  H          -2.43451646236006     -0.38730610463388     -0.96675639171227
  C           0.27836065515912      0.34451842163540      0.44028576495008
  C           0.23171285527233     -0.78962066212931      1.26934936688204
  C          -0.98418087417290     -1.38996758657758      1.57485110972539
  O          -1.56933398004226     -1.97966107840817     -0.02378590688358
  O           1.50496633757806      0.84715123446944      0.16442188052969
  H          -0.52176667989582      1.08240375181060      0.51666741542318
  H           1.14004859324620     -1.37161479155627      1.32499618803384
  H          -1.84612366291146     -0.76528707222038      1.76911688599508
  H          -0.97187955802700     -2.31905217391676      2.12265775554072
  C           1.55288478211748      2.10639215216517     -0.46449257844785
  H           1.18958210985621      2.05577939906720     -1.49598109332278
  H           2.60020704888640      2.40038373257867     -0.47190266046675
  H           0.96597961874388      2.84817113727141      0.08731778267382
