18
Coordinates from ORCA-job NEB_product E -29.583562280610
  C           2.02495467239623      2.04715818830144      0.61083400911920
  C           0.77757659499691      2.71049487943291      0.07576490517365
  Br          1.38854092204207      0.31412064442064      1.24172185818103
  H           2.73691049081810      1.84099096266241     -0.19066393435198
  H           0.39781175958402      2.23004066739413     -0.84568942507121
  C           2.69673381474154      2.84888874623217      1.72705346013743
  C           3.73043364493896      2.03576469411065      2.45662885709566
  C           3.64933097576616      1.72042511922448      3.73484642193392
  O           0.20835368037040      3.61804247965020      0.60207424649768
  O           3.27947353897706      3.95355151868265      1.05471988083151
  H           1.92255448230373      3.19825019089288      2.42936788372314
  H           4.57394154444254      1.73396809029961      1.85042653704691
  H           2.81143843275012      2.02300614955499      4.34193464211233
  H           4.40729943919036      1.13314135370523      4.22324739690778
  C           3.57332098505968      5.03723186457006      1.90259023876039
  H           4.01449992896440      5.80386457912744      1.26948590410954
  H           4.28434093039889      4.75122362351820      2.68569294432674
  H           2.66188416225883      5.42693624821991      2.36966417346629
