20
Coordinates from ORCA-job NEB_reactant E -49.915744077990
  C           1.57359710118332      0.10540281932023     -0.10741487597891
  C           0.82963418637158     -0.70752475126295      0.64726770255587
  C           2.22886043906355     -0.36481123144504     -1.34765431260342
  H           1.70458831792031      1.13059522462474      0.18909546469882
  F           0.25975984384970     -0.23042628961958      1.76435912326877
  C          -0.21018151692238     -5.21489373817815      1.42952915908941
  C          -0.35185126940079     -4.10668817000083      0.72380141279910
  C          -0.21264841451427     -2.73272704977211      1.29173635435059
  O           0.59650020427668     -1.97875947711975      0.38751721649276
  C          -0.38088138187929     -6.58982895863628      0.85719880218868
  H           0.01197163963042     -5.20948925024081      2.48673925976968
  H          -0.57446556617921     -4.14363629202620     -0.33308541465851
  H           0.25004659790231     -2.75411203712003      2.28494000276207
  H          -1.20333084115657     -2.26411088644279      1.37391296370631
  Cl          1.02697694976540     -0.97692716355773     -2.52432114205400
  Cl          3.13426078975161      0.94854051985088     -2.10852476262784
  Cl          3.36356611052363     -1.70897243588721     -1.00853453215913
  F          -1.25713460464244     -7.30883665693499      1.60704333459298
  F          -0.88239475149841     -6.56656039802359     -0.39728160022451
  H           0.56542616595485     -7.15843377752781      0.83067584403127
