20
Coordinates from ORCA-job NEB_product E -36.128797957930
  C           2.70489891817995      1.15978115991806     -1.69930596027824
  C           1.79778016591912     -0.10379462643226     -1.83400291364835
  N           2.92799366561520      1.49774690629210     -0.28741537699737
  H           3.68685401143617      0.87333350923064     -2.09490515431619
  N           2.16526405379093     -1.11751349700352     -1.03889515825128
  C           2.15605226830880      2.32632364555634     -2.54510359089971
  C           0.76134415288510      2.74705907481045     -2.15470639858193
  C          -0.24153657075907      2.79958966112209     -3.00987819708857
  O           0.90036830465375     -0.14528278642264     -2.63481507762194
  N           3.12787906658540      3.41529376962348     -2.49071392305088
  H           2.13049504323080      1.95851035415443     -3.57752853709690
  H           0.63692236999349      3.07551454574763     -1.13256650847806
  H          -0.13271264320335      2.47617074176694     -4.03152510794284
  H          -1.21798831277041      3.14530545616090     -2.71700922082391
  O           3.55956379459092      0.68533237492760      0.36221387921449
  O           2.48701180641694      2.52392802145568      0.16026378424133
  H           1.61702305862837     -1.96164196907432     -1.05266943979367
  H           2.88654258199644     -1.00501412027334     -0.33895290992885
  H           3.08524251164840      3.86886339288621     -1.58200302637692
  H           2.89900175285303      4.11519438555352     -3.18658116228020
