17
Coordinates from ORCA-job NEB E -30.361484504550
  C           0.19660046277058     -0.37526439883418      1.36627567274631
  C          -1.17744339327020     -0.58141708878142      1.36077259044263
  H           0.56068922400123      0.61273729054576      1.60913156670371
  H           0.82652790806762     -1.17891616702648      1.72242832104527
  H          -1.56890149179538     -1.60154856228236      1.40121263532948
  C           0.48325836672588     -0.24613433745794     -0.52989395863474
  C          -0.40043024731656      0.76198400932622     -0.91885300857993
  C          -1.79377463401333      0.53240358644965     -0.68718241758786
  O          -1.96496920466300      0.34406305386993      0.88181997162811
  C           1.96534143889633      0.00902404296444     -0.67043600627787
  H           0.24269960627783     -1.27143423556977     -0.79210726275419
  H          -0.04573845079071      1.78233429190777     -0.88479600517631
  H          -2.18611669073569     -0.40533448900664     -1.07724527203527
  H          -2.45310369437799      1.36639462360644     -0.89729446266798
  F           2.34267595652380      1.16169127980338     -0.06989135423512
  F           2.69017260572333     -0.97818142510982     -0.08820904225152
  H           2.28251223797626      0.06759852559505     -1.72573196769471
