17
Coordinates from ORCA-job NEB_reactant E -30.395756620900
  C           2.49019317862201      0.21266776878592     -0.41633125612531
  C           1.41632147845212     -0.07830030002908     -1.13075655826263
  H           3.22249923406644      0.94101077919472     -0.71343114934047
  H           2.67047163696316     -0.30004119841082      0.50921982280855
  H           0.70058505721390     -0.82545798135797     -0.81515855637443
  C           4.19149868105527      1.79145270391834     -3.45255480101899
  C           3.11730098167540      1.02506860902872     -3.36895866139066
  C           1.78379828948192      1.49248040753664     -2.86629305018293
  O           1.00685753315441      0.45653772003294     -2.30996407192432
  C           5.50988449600003      1.32311301583974     -3.98793599030836
  H           4.19706243178311      2.82076184621760     -3.12377613014434
  H           3.14898639099170     -0.00596133008775     -3.69423719438272
  H           1.19097493444196      1.85375461629773     -3.71510377461926
  H           1.90397539971715      2.31559787810694     -2.14908698556399
  F           6.48786444896951      1.48262921667391     -3.05462255138192
  F           5.50197757473833      0.00896195598356     -4.30675192979822
  H           5.82884825267358      1.88292429226887     -4.88485716199001
