17
Coordinates from ORCA-job NEB_product E -30.408098664890
  C           3.19590374709646     -0.23029080345294     -1.95040398732469
  C           1.72920440960631     -0.44059061324747     -1.71333983318241
  H           3.69328130335413     -0.06846339470626     -0.99089292883713
  H           3.59328126199153     -1.16243473665617     -2.36573554027174
  H           1.52317122356431     -1.20125864790744     -0.93424312669477
  C           3.47217244749116      0.93509053219128     -2.91012776297687
  C           3.21772456177203      2.25531987086149     -2.23886959241388
  C           2.27653454700689      3.10015011374744     -2.61063920430262
  O           0.83912953360833      0.11474965808872     -2.28972521346089
  C           4.91996022477012      0.87707149566872     -3.39631303335636
  H           2.82456893642050      0.83252412036363     -3.78616731947133
  H           3.86558359740498      2.47240499451527     -1.39966795848046
  H           1.61740084345654      2.88589938367649     -3.43472764311938
  H           2.11457939039138      4.03024605564388     -2.09413900851549
  F           5.78875496321344      0.86554356069741     -2.35497565745555
  F           5.15455878528789     -0.26758428875785     -4.08663460108624
  H           5.18899022356400      1.72292269927381     -4.04699758905019
