18
Coordinates from ORCA-job NEB E -29.206488356840
  C           1.17071699762547     -0.08162080960900     -0.56075080452650
  C           0.46415583907118      0.73230270605449     -1.43284879597542
  N           1.05148917080209     -1.48007502099598     -0.57671545527944
  H           2.11831795530291      0.27492881712664     -0.17670898201101
  Br          1.06957726213814      2.64380784327855     -1.34254355819668
  C          -0.12707575420515      0.29900574910469      1.10905951678801
  C          -1.32981744684073     -0.08299862329267      0.50436521496562
  C          -1.91801012505543      0.69463397613055     -0.47493709381464
  O          -0.66792708640892      0.52946089882533     -1.88633450440970
  N           0.42695929269965     -0.47027776715870      2.09805309986866
  H           0.10764776122281      1.35410747335209      1.18121356613481
  H          -1.61744157599327     -1.12198622417915      0.59104226170197
  H          -1.81112474900139      1.76917360786260     -0.43995985105458
  H          -2.79876299317624      0.33826993210643     -0.98268099188787
  H           1.90740083433504     -1.95474693984944     -0.83218468807893
  H           0.27919706464907     -1.78272804105725     -1.15843695661467
  H           0.33322930954231     -1.46656998406233      1.96076758868379
  H           1.34146824329246     -0.19468759363682      2.41960043370660
