18
Coordinates from ORCA-job NEB_product E -29.231233316980
  C           1.48654421253082      0.03321790792345      2.28118318684816
  C           1.00707467210743      0.68748508926660      1.01380070664099
  N           1.21089877347339     -1.38349030368849      2.29071802431054
  H           2.56592165534156      0.18855398232560      2.38708836934771
  Br          1.66558087995023      2.52970016744064      0.80558301541477
  C           0.81624141097792      0.71865574838319      3.50893685249173
  C          -0.67963115701006      0.53442997955944      3.45923148796320
  C          -1.52755487749310      1.48978429777540      3.12767182587189
  O           0.30867352775171      0.23235260548396      0.17653552891719
  N           1.44831765451315      0.16628918058992      4.69132278348969
  H           1.05218651265648      1.78899471331042      3.47793373474296
  H          -1.03348674683227     -0.44931263651987      3.74057004305713
  H          -1.19124541164665      2.47750940139486      2.85606381182958
  H          -2.59171898508052      1.32743664507578      3.10981242519653
  H           1.79469945039051     -1.87630714986561      1.62532759613057
  H           0.24142258328836     -1.56129088943423      2.04918294676709
  H           1.36511179816042     -0.84534348018094      4.67746709751428
  H           0.99806404692064      0.51903474115987      5.52807056346598
