19
Coordinates from ORCA-job NEB E -37.473306723620
  C           0.84339196930932     -0.04529996848587     -0.92733810932961
  C          -0.49083383503269     -0.32152043040258     -1.23759470388770
  H           1.50801791719463     -0.89205271302102     -0.87068414887651
  H           1.29200457928633      0.84642762101235     -1.33808080883930
  C          -1.35400859353996      0.79237620603490     -1.82958828144837
  C           0.79767267800938      0.30126627024810      1.00135018518468
  C           0.14175361686111     -0.87335448590369      1.42953275209051
  C          -1.17222840235885     -1.12916171145974      1.05212288381100
  O          -1.08655119747867     -1.32336342556709     -0.73319187639544
  N           2.12812860645223      0.52087189725470      1.30946406807855
  H           0.20815317965682      1.20850076104291      0.93815617832236
  H           0.76802777668323     -1.70963159831350      1.71273032415169
  H          -1.87439223911190     -0.30721152927576      1.02854903078713
  H          -1.60728415161753     -2.07968894772708      1.31887701963984
  Cl         -1.62703126129401      2.11752552654773     -0.64679340688984
  Cl         -0.56088692315444      1.50529906790402     -3.24776381494739
  Cl         -2.93338094009736      0.16058825642413     -2.30866977174267
  H           2.61341976661256     -0.22202354086599      1.78334146578597
  H           2.40602745361981      1.45045274455348      1.56558101450509
