19
Coordinates from ORCA-job NEB_reactant E -37.503397361700
  C           1.31936755482941      0.06234343616079      0.30894727258653
  C           1.67019276631801      1.30232065008260      0.62749039472745
  H           1.55396750359987     -0.77293055395888      0.94068614861354
  H           0.78587748849140     -0.14875059217985     -0.59628059991482
  C           1.36800076891123      2.50780471074819     -0.22900611383574
  C           2.98240124124382      1.60148883586713      4.99705999211290
  C           3.47880384070539      1.44140224876827      3.77136898716756
  C           2.74682487546364      0.73727567153496      2.67949723599356
  O           2.34035885170885      1.71775364836248      1.72320168856591
  N           3.65407948213425      2.17316458043299      6.05232524552405
  H           2.01668151886212      1.18806780871845      5.25690865454845
  H           4.43662514701066      1.86212973887051      3.50581833449294
  H           1.86074283777006      0.22417255937072      3.07347075066490
  H           3.39479438355058      0.00415469203596      2.17928884718809
  Cl          2.90343654822311      3.26605230718219     -0.72550455319567
  Cl          0.44324149047523      2.13154511619159     -1.67879364642626
  Cl          0.44533738492162      3.69176224477051      0.73093217061089
  H           4.45877604398672      2.72757906124774      5.80238298536678
  H           3.08759027179403      2.57586383579363      6.78050620520893
