19
Coordinates from ORCA-job NEB_product E -37.502084264020
  C           2.12452853132403      1.28551097609707      1.51650149881339
  C           1.02058454025103      2.28414553192774      1.32800230309530
  H           1.75432998719674      0.31545466712378      1.17721379001804
  H           3.00880331093914      1.55372651636748      0.94108463607722
  C           1.31370799772398      3.37696395179286      0.27345243940469
  C           2.47374079161017      1.17577460781127      3.01751091672712
  C           3.42088935189664      0.02628481083471      3.23877250571858
  C           3.18862307990196     -0.97951578993148      4.06076702956455
  O          -0.02399928238663      2.27040473300191      1.90632983707321
  N           3.02305373261721      2.45178530547544      3.45325888317420
  H           1.54662762797026      1.01089797933414      3.57625958332009
  H           4.35806134983325      0.09645152357525      2.70009280445450
  H           2.26313356489485     -1.05888399807480      4.60724066526725
  H           3.90678520520377     -1.76595962118142      4.21963663090615
  Cl          2.76977207040026      4.27450108039050      0.72826047795084
  Cl          1.58600641326156      2.56328477950692     -1.28759239332399
  Cl         -0.04451264218084      4.49364925339634      0.12132033172906
  H           3.93054996422221      2.61271158478984      3.02724295546492
  H           3.14401440532041      2.46031210776244      4.45914510456488
