20
Coordinates from ORCA-job NEB E -50.535490127770
  C           0.39772648339221     -0.58817331018415     -1.01158621551554
  C          -0.99763648990198     -0.37187079697426     -1.07844634347837
  Cl          0.91435561437313     -2.25870089195139     -0.85612069106667
  H           1.01072484562374     -0.07019618336716     -1.74546615152740
  C          -1.55203945485947      0.74899269837103     -1.88996317483175
  C           0.81581732907998      0.17359619454034      0.65487418610092
  C          -0.06267186727811     -0.48604706721248      1.52761911941735
  C          -1.47263093392235     -0.36457894608499      1.29251857031774
  O          -1.76956982099637     -0.87782292427938     -0.15733204069743
  C           2.29181740901711      0.11463710224472      0.94884946914305
  H           0.55290950577234      1.19759013004375      0.38392372520060
  H           0.29051989741738     -1.33781229261233      2.09050714834262
  H          -1.84987471006411      0.65801499319639      1.25546205179682
  H          -2.09820693462701     -0.99930710689126      1.91094551006466
  Br         -0.88214600486618      0.73542030929233     -3.71232858015295
  Br         -3.48056843637978      0.65390155386840     -1.89837176959539
  Br         -1.06200979014026      2.56786023460316     -1.10820815438367
  Br          2.62473017431186      1.45013468464153      2.37054065120979
  Br          2.94932326384048     -1.58564609028870      1.60525774545422
  Br          3.37942992020739      0.64000770904445     -0.58267505579861
