20
Coordinates from ORCA-job NEB_product E -50.572137348380
  C           3.17598272086843      1.59164854075194      0.95196164410533
  C           1.72445340977081      1.76308672544324      0.56528633186776
  Cl          3.46430547744841     -0.13012630877996      0.50358522270506
  H           3.84365473017011      2.19343768716329      0.32947433618546
  C           1.49146507548801      2.46459159296030     -0.76378819735237
  C           3.37430339491900      1.90491710812009      2.44087635282670
  C           2.71042737548794      0.89252762076703      3.33386823081126
  C           1.86156607268162      1.21957309526363      4.28925444145032
  O           0.79685862406400      1.42028255294080      1.23513331300906
  C           4.84428255202485      2.06748619621056      2.82884629067577
  H           2.90598301876340      2.88686621610913      2.60892536730449
  H           2.98702211230412     -0.13671323470213      3.15821465598305
  H           1.57308451366718      2.24032466593503      4.47971887455770
  H           1.41467142315208      0.47037859521779      4.91769376538129
  Br          2.62365037304795      1.85027312865071     -2.20302221707049
  Br         -0.36214349088316      2.34007125827675     -1.26920757042940
  Br          1.93534976528868      4.33483104559339     -0.33040500415002
  Br          4.94415037168797      2.69667976674584      4.67723060189883
  Br          5.87056728959633      0.42641512639898      2.70995233030719
  Br          5.72796519045229      3.42694862093358      1.71920122993301
