27
Coordinates from ORCA-job NEB_reactant E -35.508794775620
  C           1.84866271029948     -0.29398829567607      0.03730025288878
  C           1.34180211267240     -1.52265206843991      0.13085533716085
  O           2.21946537205734      0.35082914982861     -1.12922252472132
  H           1.95453163048315      0.28521787884216      0.94496915772194
  C           0.91999347162104     -2.07891479309493      1.46676900536504
  C           4.21773672075863     -1.68251612670099     -2.43332581471095
  C           3.30028137082373     -2.46908902977585     -1.89933936009577
  C           1.82148486999052     -2.29641385445752     -2.08342540302575
  O           1.11738867189012     -2.43594739545446     -0.86168653908629
  C           5.69221819013598     -1.83508287118504     -2.23618950996633
  H           3.91268705281509     -0.84620002914822     -3.04883683943565
  H           3.58385976084509     -3.30153616171603     -1.26780391735815
  H           1.42512898817211     -3.10389736967322     -2.71047189540773
  H           1.60258556973142     -1.33395318125945     -2.55511470653316
  H           2.86117957151722      1.03535442200961     -0.91897569095388
  C           1.96683042027566     -3.05608711518761      2.00211178063974
  H          -0.02461743277530     -2.60734933226853      1.32929424060192
  H           0.76715755997177     -1.26752797587203      2.17769743495636
  H           2.11260949096567     -3.86770076722793      1.29426765039133
  H           1.64384629508738     -3.47703484677948      2.95131745363461
  H           2.91784950719083     -2.54929629540269      2.15067476796608
  C           6.27491147068281     -0.61040647536825     -1.53007381988431
  H           6.17671317670892     -1.94766638725082     -3.21025812378681
  H           5.89855006487694     -2.73099937301772     -1.64789587803754
  H           6.08531253626936      0.28971486883213     -2.11099669277731
  H           7.34945673301234     -0.71823462837572     -1.40164528362538
  H           5.81967411392028     -0.49132194618003     -0.54919508192031
