21
Coordinates from ORCA-job NEB_reactant E -46.079771533560
  C           1.83534986223415      0.16940576014107     -0.11855981307886
  C           1.47908778285915      1.18789923201841     -0.90258143830998
  C           2.05776068841510      0.12696005037299      1.35913605000845
  H           2.02147452756191     -0.77726978893605     -0.60460725463614
  C           1.27284009190671      0.93064002990202     -2.39213723423572
  C           4.02851343708056      4.03974948964460     -0.11242275670404
  C           3.23589709716994      3.14764388380755      0.47172717913014
  C           1.74574790032844      3.23335364868969      0.40108717825384
  O           1.19221232238840      2.48632381273506     -0.69221622505879
  O           5.37025882491650      4.01582835580100     -0.11794844154814
  H           3.64442178966931      4.90381070835450     -0.63641071643136
  H           3.67034702002291      2.29466925840247      0.97267903082262
  H           1.43276762712820      4.25447362471506      0.17194315157174
  H           1.27212626693762      2.92453151316321      1.33918395023233
  F           3.39532582790013     -0.09488875411823      1.63069423758788
  H           1.51721186692248     -0.72422380658391      1.78867614071741
  H           1.78168878208949      1.04071137199223      1.88569794693281
  F           0.04277480217844      1.27799524931154     -2.78841867720161
  F           2.13457376871207      1.64236012174314     -3.13089810287019
  F           1.43768955525438     -0.35064131314565     -2.74326440944126
  H           5.69573015832411      3.22456755198930      0.33284020425887
