16
Coordinates from ORCA-job NEB_product E -30.519021011240
  C           3.23060575840545      0.64771431783375     -2.06181329995366
  C           1.74616472095429      0.57223660134084     -2.46172139993323
  F           3.46133215250831     -0.09382528113673     -0.92484925159726
  H           3.84209846919585      0.20538929086578     -2.85786609565904
  N           0.99600247633821     -0.21844126725459     -1.67990844121106
  C           3.60387089562407      2.11479693695307     -1.85019321257611
  C           2.96486552270210      2.68479165606793     -0.62845918297612
  C           2.16764184765717      3.73624620110513     -0.65166638463531
  O           1.32621581341673      1.19221356146345     -3.41020218104166
  Cl          5.39172919245772      2.26650414285555     -1.69471513875633
  H           3.31713950946199      2.66504719633966     -2.74937707483584
  H           3.20689395503235      2.17722185127043      0.29497390410587
  H           1.92795648275833      4.24484078393907     -1.57046899295094
  H           1.71977456454542      4.12423812233254      0.24655331363201
  H           0.01430396623044     -0.31104854762002     -1.88095261274832
  H           1.38800467271157     -0.70902556635584     -0.89463394886299
