16
Coordinates from ORCA-job NEB_reactant E -30.484180959150
  C           2.09830784918049      0.05058493256550     -0.28917490386648
  C           1.59167219075301      0.45396848928754     -1.45845407428039
  F           2.58513528213022      0.88637918283975      0.67064083131877
  H           2.20177704131144     -0.98547964377509     -0.02019157613949
  N           1.18122872849212     -0.47629327668100     -2.40621471571180
  C           4.21838929411893      3.59477296218535     -2.40639245234513
  C           3.58605563858243      2.72705346967160     -1.63663315277431
  C           2.11310359348667      2.80738151052071     -1.36556894780987
  O           1.40075139016621      1.71631428696902     -1.93111528478673
  Cl          5.90416409575061      3.50845901130555     -2.71874190376534
  H           3.73323624278659      4.43241614690034     -2.88441587538946
  H           4.11223913165328      1.90143876981710     -1.18154756465672
  H           1.68010786029697      3.68647391075101     -1.84836617079776
  H           1.93528580017712      2.86639048173296     -0.28621125068303
  H           0.57132904268437     -0.06926256348783     -3.09972962223713
  H           0.84621681842955     -1.35219767060250     -2.03838333607513
