23
Coordinates from ORCA-job NEB_product E -44.722131356090
  C           2.79220631458819     -1.66150812883459     -0.63056413248942
  C           1.50224587456257     -2.16059270304163      0.00362060228342
  N           2.62185745930815     -0.34198077930084     -1.19764471673680
  H           3.59380968308836     -1.62676775188478      0.11160781615704
  C           1.59338279807959     -2.53944971877472      1.49209726233612
  C           3.21867379756661     -2.65684252212870     -1.74533087109467
  C           2.18106371699509     -2.75353935546605     -2.82850011637709
  C           2.25703306910012     -2.09886832095853     -3.97246327155105
  O           0.44329062043635     -2.16340008540949     -0.55606918063021
  O           3.44380395523669     -3.89616954674041     -1.10542613483073
  H           4.15870093031798     -2.26771462259709     -2.16968149432033
  H           1.34500158608141     -3.40061003503767     -2.60388504728554
  H           1.48885387522688     -2.17830460272985     -4.72230842770857
  H           3.08767524982334     -1.45018793009284     -4.19857899703708
  H           1.88065973126026     -0.35315794904663     -1.89166030735237
  H           2.37678124866033      0.32674612613656     -0.47577077184905
  Cl          2.95619130889291     -3.59956863504421      1.84398989390309
  Cl          1.82522040712300     -0.97379446079752      2.32543157372592
  Cl          0.09354570722345     -3.28092226391593      2.05439644762729
  C           4.10433099704840     -4.83483874449906     -1.91985214539053
  H           5.08488613635676     -4.45860978680918     -2.23522977823869
  H           3.51684104455688     -5.07913145139888     -2.81140941859921
  H           4.23364448846669     -5.72698673162796     -1.31096878454156
