20
Coordinates from ORCA-job NEB E -29.794140872680
  C           1.10958057495813      0.24671378839667      0.80056443948334
  C          -0.70079113290622     -1.34719298824156      1.22974061058732
  C           0.77062082767060      1.11642567713668      1.97534672768863
  H           0.29110085487473     -0.71943155382009      0.86631463345100
  N          -1.22216150227497     -1.93846846970647      0.16104570477637
  C           0.76556713615472      0.89410982008225     -0.55258034701296
  C           0.81070561178794     -0.13488426271235     -1.65173098879616
  C          -0.18141312296136     -0.36122042410022     -2.49854490044592
  O          -1.01898740359771     -1.38056996608651      2.36847424094033
  C          -0.46502897019658      1.64106760726913     -0.54292837740008
  H           1.58997529879282      1.61081328227511     -0.70042768737302
  H           1.71917874475026     -0.71938952972967     -1.66419309846623
  H          -1.08192906176999      0.24080658418821     -2.48377999467837
  H          -0.12783128040665     -1.11168851761170     -3.26967422442455
  H          -0.17390997186565      1.66869512073836      1.89256847244190
  H           1.57108403014223      1.84612973551940      2.08990463494756
  H           0.73894250633267      0.50961773718920      2.87924983773868
  H          -2.06022138630262     -2.49735550353145      0.26447982282617
  H          -0.86823525055916     -1.74334469102363     -0.76324527816330
  N          -1.46624650262320      2.17916655376865     -0.40058422812067
