20
Coordinates from ORCA-job NEB_product E -29.935275882170
  C           1.10051739875168      0.54752097017218     -1.46370788271875
  C           1.52303569674806     -0.78830558340780     -2.08130856507136
  C           1.88866349725782      0.90985732557876     -0.20737900339283
  H           0.04073358456405      0.44081703455400     -1.20998269464137
  N           2.85169577379594     -1.02024841538549     -2.12415579796756
  C           1.19219534519267      1.63685976920085     -2.56831430562453
  C           0.58090646321192      2.93853132685283     -2.11914397563124
  C          -0.55917389111246      3.40395674347490     -2.59108545658700
  O           0.70946596966345     -1.57886559268451     -2.50429876078231
  C           2.57054791052895      1.86010532237451     -2.93019279352602
  H           0.65925524473698      1.26911665790641     -3.45409992958319
  H           1.13787636173626      3.48235637450807     -1.36904400860697
  H          -1.12314085816970      2.87667530758021     -3.34333867043725
  H          -0.97923736768930      4.33127800393997     -2.24174550213369
  H           1.38590648359908      1.70864988098712      0.33326080978983
  H           2.89687471925089      1.24483390703013     -0.44483884481253
  H           1.95445810354635      0.04651346963526      0.45101076328581
  H           3.16866684769396     -1.85713976446529     -2.58601654235170
  H           3.53206971504092     -0.31567211839136     -1.90180464480204
  N           3.67298300165247      2.03765938053923     -3.17971419440529
