17
Coordinates from ORCA-job NEB_product E -42.732731135610
  C           1.66148502379109     -0.72893001505484      1.45409444652716
  C           0.76804799211505      0.38339403203769      0.93915840636060
  C           1.61891613298516     -1.90041000956580      0.46303134318262
  H           2.69953136859708     -0.37813073239766      1.47758420576317
  Cl          1.14635389787736      1.91158600097647      1.72013144881586
  C           1.23511764708895     -1.08501937507675      2.89889523083888
  C          -0.07356825819011     -1.80101213065283      2.98526151264624
  C          -1.16583163457094     -1.23493176636272      3.46377600138793
  O          -0.09930311161397      0.30783972626569      0.14250955321525
  Cl          2.52014966819095     -2.08661307599432      3.66476268380795
  H           1.20303728750762     -0.15361192904513      3.47115864965639
  H          -0.07849656948162     -2.82615480761882      2.64662783540497
  H          -1.17517709018567     -0.21592734866065      3.81463853910461
  H          -2.09680854500185     -1.77012706242833      3.51676261768890
  F           2.38854232146872     -2.92124081881907      0.84708710112934
  F           0.40041200695200     -2.39562613560643      0.25258926805932
  F           2.08949186247018     -1.50168455199653     -0.72846884358919
