17
Coordinates from ORCA-job NEB_reactant E -42.723681117040
  C           1.64966847163199     -0.00890270360924     -0.08732524156561
  C           0.93696890433797      0.11826014810214      1.03924880119879
  C           2.16062245786222     -1.34151896919479     -0.52018134205942
  H           1.88514669543560      0.82738392458446     -0.71771864134767
  Cl          0.36207264226120      1.68007321526722      1.50027753916478
  C          -0.01682770189339     -2.38933942070766      4.85041925863741
  C          -0.30771410399307     -2.11658059492592      3.58915242349884
  C          -0.13623572823434     -0.75753790501321      2.98880257062864
  O           0.65917928569948     -0.91306947574987      1.81493179166059
  Cl         -0.23904590667798     -3.93979804236639      5.53835224424028
  H           0.36178327610851     -1.65480726036296      5.54588771552181
  H          -0.67168909924959     -2.87842499868542      2.91703263577662
  H           0.35620787665028     -0.07451021885420      3.68974663469807
  H          -1.11430259022549     -0.34205577531743      2.71083629102031
  F           3.03303026764515     -1.88336351343508      0.34946970989804
  F           1.18718473012992     -2.25636075723953     -0.67960165664282
  F           2.79935052251154     -1.25994765249211     -1.69453073432868
