21
Coordinates from ORCA-job NEB E -42.280614502490
  C           0.37314436606538      0.40041586118364      0.98820282560785
  C          -0.96988840518465     -0.01392869094601      1.13692042191201
  C           0.61165786735039      1.80136266424363      0.86575135954944
  H           1.11031124679273     -0.09402907947582      1.61698793577621
  C          -1.20889087334440     -1.37731234913261      1.77050176300239
  C           0.75775374996389     -0.17217383059334     -0.78923973910587
  C          -0.27793079773078      0.45984449710829     -1.49171369455224
  C          -1.62143416507060      0.08276659201991     -1.22888702196975
  O          -1.88544149412263      0.44756401893782      0.35011661755697
  C           2.18443339542071      0.22697511544845     -1.05575755934810
  H           0.64142883978351     -1.23918721821500     -0.61568933305912
  H          -0.09261425036178      1.44721232212766     -1.89122211828406
  H          -1.83773999416518     -0.98218766816893     -1.21677869513639
  H          -2.39521166665817      0.66264343922404     -1.71565223869038
  N           0.80069376601612      2.92525892517861      0.77727286817857
  F          -0.98585821859134     -2.39123388910492      0.89325830849461
  F          -0.38391691370947     -1.60638055482585      2.80390252105030
  F          -2.45626439330660     -1.53096371012445      2.20869007617445
  H           2.84974135865046     -0.13722980763859     -0.27680047549224
  H           2.28525097391621      1.30683368289219     -1.13078140272798
  H           2.50077560828619     -0.21625032013873     -1.99908241893668
