21
Coordinates from ORCA-job NEB_reactant E -42.314778733740
  C           2.21231238356409     -0.29210546634060     -0.31313788555371
  C           1.58159601875289     -1.35586376436688     -0.83763527572439
  C           2.48813533905297      0.92494883006327     -0.95611280957652
  H           2.55640487496773     -0.34126048258435      0.71051704265416
  C           1.38865833232335     -2.60867300440321      0.00420730262961
  C           3.58601536244898     -1.26816969629585     -3.35026149244282
  C           2.60806966442788     -0.39656902420668     -3.53222053673104
  C           1.19504396117876     -0.57557378533040     -3.05434040487460
  O           1.05185341196577     -1.56557092366089     -2.04412208876263
  C           4.98231321075723     -1.07302499537761     -3.82893876642330
  H           3.40150219318674     -2.19625198751513     -2.82285047044976
  H           2.77992145645468      0.53060525753377     -4.05884927634750
  H           0.55973288222666     -0.93863097050944     -3.86954548408649
  H           0.79186496045912      0.38013672026512     -2.69954286575415
  N           2.74229733927593      1.94843833032828     -1.40893480498683
  F           2.09573497843520     -3.63497105500214     -0.48996552284130
  F           1.78081754869763     -2.44882339874385      1.27310727808289
  F           0.11031766755896     -2.99569303048334      0.03862050277314
  H           5.67233928870079     -1.09425491192393     -2.98620559348246
  H           5.08765631016879     -0.12385998634801     -4.34691669966762
  H           5.26221281539584     -1.88163265509813     -4.50297214843469
