21
Coordinates from ORCA-job NEB_product E -42.307631921510
  C           2.95439552436241     -0.68352604492766     -1.12860518703290
  C           1.54047642726816     -1.03553529599255     -0.74449646458652
  C           3.20675125360519      0.71885529787928     -0.87935881275604
  H           3.67490889670117     -1.27799814794911     -0.55548139394828
  C           1.44900430313494     -2.41298707863621     -0.01953438167519
  C           3.13299077781928     -0.99933065325566     -2.65508236607961
  C           2.19424493624425     -0.15625493086243     -3.46401770770005
  C           1.17586916876597     -0.64164311430469     -4.14823049227642
  O           0.55643964749638     -0.40701852778262     -0.98958421612233
  C           4.58583768876776     -0.74471910987643     -3.05191847889139
  H           2.89747749695641     -2.05844234977731     -2.80205120089686
  H           2.39881730330970      0.90549253938215     -3.44955851735638
  H           0.95335564745177     -1.69664799897097     -4.16849060884552
  H           0.52337615406415     -0.00618801647941     -4.72013010957427
  N           3.42608717683051      1.82205608067913     -0.68682731770930
  F           1.98984426173988     -3.38411937081376     -0.77707977388471
  F           2.14154859770249     -2.39529354408861      1.13001314174458
  F           0.20164609601834     -2.76598138472554      0.25876492703083
  H           5.26177658472035     -1.37718342466523     -2.48048289292757
  H           4.85401800983033      0.29608926978783     -2.88382155711088
  H           4.71433404721053     -0.96932419462019     -4.10792658940118
