17
Coordinates from ORCA-job NEB E -36.233768843010
  C          -1.39666346219883     -1.77788592982970      0.37239513633168
  C          -0.55534603780739     -0.62035087008545      0.83490539924658
  H          -0.79109456190581     -2.52315456671428     -0.14572079594550
  H          -2.21558233844983     -1.46878092584291     -0.27707151750888
  Br         -2.21240554717665     -2.68346329741010      1.88238732284802
  C           0.00556795057750      0.31679638351095     -0.25433057869538
  C           0.94503595367735      1.25206110504065      0.45030807543861
  C           0.65992596539756      2.51307503590754      0.69946279315100
  O          -0.33675702136501     -0.38592445917776      1.98732626095581
  C           0.70026071511497     -0.38499240242578     -1.41097455283514
  H          -0.85672253170698      0.86816963111693     -0.65325163758774
  H           1.84997334608765      0.79760229740270      0.83065784787383
  H          -0.23424501864660      2.99082530897512      0.33449317431378
  H           1.32764471840354      3.13735452411418      1.26649245140571
  Br         -0.58298394695122     -1.07987340965323     -2.72594904261708
  Br          1.83951479519414      0.89171101712284     -2.38620651909505
  Br          1.85387702175557     -1.84316944205170     -0.80492381728022
