17
Coordinates from ORCA-job NEB_product E -36.258350964800
  C           2.59494517822749     -0.28024621493049     -2.62002204674469
  C           1.19912703506186     -0.76557864932358     -2.84387819928148
  H           2.66990127530075     -0.04391072890257     -1.55255544031720
  H           3.30664872382198     -1.08864189038657     -2.80805947434827
  Br          0.94800323315733     -2.56726666855746     -2.10304533070855
  C           2.91241504110569      0.97644495860863     -3.44665933703164
  C           3.76223636186642      1.93802749886319     -2.66116606743354
  C           3.48000798561458      3.22065000928041     -2.53429485975717
  O           0.28540787696436     -0.20739241252155     -3.33915977413593
  C           3.60946435105147      0.61963891815242     -4.75773168959988
  H           1.96704290501639      1.46863627045457     -3.71338816718193
  H           4.64496422177645      1.51249393413123     -2.20345318703551
  H           2.60757836598331      3.66244557072212     -2.98733863708305
  H           4.11356350697394      3.88194938446776     -1.97026360679010
  Br          3.85016948363082      2.21802633187423     -5.85037428268176
  Br          5.37270032150991     -0.16613519752969     -4.44862468321798
  Br          2.56122413293726     -0.67174111440265     -5.80178521665133
