18
Coordinates from ORCA-job NEB E -40.659726800290
  C           0.63654649636121      0.55235331575870     -0.55395214157542
  C          -0.47005607049024      1.32681479201996     -1.10820491457513
  Br          0.40488041419247      1.03475733401708     -3.52830479369582
  H           1.62114025817518      1.00297153637792     -0.62781595225195
  C          -0.00468414409089      2.70701344033053     -1.33931778827529
  C           0.38040010055526     -0.31847636328748      0.65492095670821
  C          -1.01708346387418     -0.87095456672710      0.67325899823141
  C          -1.83771505051090     -0.73571498461808      1.69780460255929
  O          -1.65187875284330      1.06859820954082     -1.05850433115589
  C           1.38789543041597     -1.44245477530841      0.43403534634534
  H           0.58810299097465      0.21662976285975      1.59128154142424
  H          -1.31844664007846     -1.40391821636509     -0.21755925282762
  H          -1.56112141982283     -0.19582321720117      2.58898892267888
  H          -2.82849563008258     -1.15140646040910      1.67540821683429
  N           0.22534856374072      3.82402540810514     -1.40220933926306
  Br          0.93880211236535     -3.13698207801598      1.20512348500000
  Br          1.32039179594685     -1.52201408473648     -1.62102028058756
  Br          3.18597300906573     -0.95541905234102      0.93606672442608
