20
Coordinates from ORCA-job NEB E -39.088871225090
  C           0.54024751520794      0.77724217594612      0.30947547237501
  C          -0.75479046748980      0.33711560353355      0.64733237870120
  C           0.64370793521119      1.92468201362660     -0.67305816904164
  H           1.19968095205189      0.92905158378326      1.16218027163102
  C          -1.06285129002856     -0.14372988648549      2.02586845496706
  C           1.25768850153509     -0.67377501838204     -0.67626222264085
  C           0.23349477609724     -1.58646850052474     -0.94478010276124
  C          -0.98242921192956     -0.98231100325219     -1.43065706605630
  O          -1.56325009148605     -0.12827414356880     -0.27248601227632
  I           3.00794770603824     -1.39905488899053      0.31050038828510
  H           1.56987455835104     -0.05728969704894     -1.50884894227054
  H           0.14864922610142     -2.49492705106771     -0.36644378088992
  H          -1.79542653165936     -1.67073608972669     -1.64272720905530
  H          -0.84560425824613     -0.26867789973071     -2.24443068326015
  H           0.00414012685241      1.77798537613640     -1.53980189517759
  H           1.67168680645843      2.07079716145482     -0.99624209020215
  H           0.32279456487545      2.83535068092647     -0.16711364796074
  Br         -0.47890316959164      1.10944575324836      3.38218216218308
  Br         -2.96600321508802     -0.44526001393507      2.20934184885310
  Br         -0.15065443326122     -1.91116615594267      2.41597084459717
