23
Coordinates from ORCA-job NEB E -48.055026641280
  C           0.42657401890144     -0.41843667984419     -1.02815527356557
  C          -0.59846699268093      0.51911515379573     -0.81890073228295
  C           0.07238281492909     -1.86428837829081     -1.28070875640453
  H           1.25070945809369     -0.09386516776610     -1.65418522828233
  O          -0.31513289892544      1.78039376476738     -1.22399141762192
  C           1.13497752550148     -0.36816824539775      0.85415096750925
  C           0.02269422472034     -0.67735511423736      1.62823974060770
  C          -1.08254184008960      0.20918919008457      1.58015044058580
  O          -1.57028207882944      0.28425798119053     -0.01771603260119
  N           2.26939311411540     -1.28725907636164      0.86092592595276
  H           1.48516477732739      0.65447298444708      0.75328973882092
  H          -0.13247780299873     -1.71090770622028      1.89856491482440
  H          -0.87246958160811      1.26245593196809      1.73809653273901
  H          -1.99318475302500     -0.12051876929334      2.06171648134541
  F           1.16881131033495     -2.65077363908894     -1.18403250148152
  F          -0.83472294590269     -2.36413896608709     -0.41819515509182
  H          -0.33196236257744     -2.00173011224892     -2.29988185828069
  C          -1.21512154841543      2.81641270786213     -0.85938218531875
  H          -1.25592111046978      3.50678103771046     -1.69991083841369
  H          -0.84184467006388      3.34138191313702      0.02320014405298
  H          -2.20773802299991      2.41234285864515     -0.65367514916945
  O           2.17157548689470     -2.31279170796145      1.48320844377424
  O           3.24958387776791     -0.91656996081026      0.25719179830194
