23
Coordinates from ORCA-job NEB_reactant E -48.087735175560
  C           2.01893708766696     -0.05114099642104      0.13123636159175
  C           1.85198571985122      1.13911121106279      0.73919889044862
  C           2.02599181151832     -1.42492704190189      0.68580225662934
  H           2.11457791697512      0.00945444112800     -0.93906081897514
  O           1.80193075389049      2.20912187933207     -0.07640342605722
  C           4.15427929689147     -0.32507223857829      4.09735303523530
  C           3.54320793038533      0.43049187591865      3.19334289064733
  C           2.06720265535276      0.62353844452601      3.09574924781213
  O           1.69834327621746      1.47958304748850      2.03393734523592
  N           5.58210190616905     -0.43859800355780      4.11144455791078
  H           3.66370646866172     -0.91386131408763      4.85609201828318
  H           4.15234139383575      0.95640004677686      2.46678594636028
  H           1.70522943713894      1.14449449045131      3.98980277537807
  H           1.54635073483327     -0.33692960082571      3.04781010294386
  F           3.08342405492643     -1.68482645195120      1.51846868452252
  F           0.92260465483296     -1.70344189370934      1.44949799803190
  H           2.05978604327762     -2.17845052006781     -0.11208294415804
  C           1.64524090193623      3.49387764336554      0.50270790240256
  H           0.70239004211964      3.56857646012848      1.04833648378252
  H           1.64466141518648      4.18482406813538     -0.33719150204487
  H           2.47141656984715      3.72946802524641      1.17727653414401
  O           6.22057799317805      0.22127305687619      3.32099006054559
  O           6.05651193530756     -1.19196662933550      4.93290559932961
