23
Coordinates from ORCA-job NEB_product E -48.115470333640
  C           3.17914207359734      0.29575634068277      1.05789062125597
  C           2.18960556970838      1.43986269696000      0.83184578749928
  C           2.49252978877397     -0.99906370413884      0.60496313385669
  H           4.02643161001340      0.46003994212179      0.37516586773385
  O           2.23563092008992      2.35622854314597      1.79019824190669
  C           3.74686872536946      0.22013193278617      2.48319254848065
  C           2.85438412341474     -0.44827898873937      3.48458298206612
  C           2.14596972110283      0.21963849094001      4.37422328243290
  O           1.47290397852662      1.49421058461832     -0.12860128852685
  N           5.08070258717480     -0.47791225263261      2.44274211784399
  H           3.97232862750955      1.24320907957019      2.80879783898759
  H           2.81934770645274     -1.52684137515832      3.43692081778098
  H           2.17486798544492      1.29530659910794      4.43469188526873
  H           1.50055272336968     -0.28552016126483      5.06990316036215
  F           3.29158171172775     -2.06523016260834      0.82944724193872
  F           1.35451097155320     -1.22652995399245      1.29910265345206
  H           2.23286837238931     -0.97211320494219     -0.46294477336176
  C           1.34316734058059      3.45881209455713      1.64318692574244
  H           1.50623795903451      4.09605236669885      2.50795090206833
  H           0.31214642278748      3.10384719265213      1.61251179114891
  H           1.55976838201744      3.99824763733820      0.71997426879032
  O           5.37349383855740     -1.14668974259312      3.39515382971970
  O           5.77715886080396     -0.26906395510941      1.48060016355253
