20
Coordinates from ORCA-job NEB_product E -45.681412754690
  C           1.23396835533436     -0.65912640848589      1.12798209069016
  C           2.74401944188265     -0.91222434959301      1.37121400134747
  C           1.01195021867119     -0.19722127624881     -0.31060922324663
  H           1.00904415392781      0.20989420858574      1.76152097765132
  C           3.24431113568890     -2.33352011467925      1.23827353029496
  C           0.26553844267450     -1.78736394872760      1.56804508699011
  C           0.10236669845091     -2.96123033838441      0.64862466062422
  C          -1.01890473521749     -3.20930976510092     -0.00234809211899
  O           3.45530297284270      0.00391946807777      1.65765256932382
  F           0.71250115967871     -2.23679285771199      2.79989305910844
  H          -0.71754154376121     -1.33795491411650      1.75834416104968
  H           0.93656581061222     -3.64261872880471      0.59452862262574
  H          -1.87235396790234     -2.55501612633414      0.05719640774630
  H          -1.11757026674181     -4.07070903702572     -0.63885623691980
  Cl          1.51394456304539     -1.41282021230629     -1.50412614546839
  Cl         -0.71251581942849      0.15873497052159     -0.58625250851805
  Cl          1.93334961550791      1.29530409417594     -0.62638813529118
  F           4.59977127439056     -2.37152014118228      1.38325632403923
  H           3.01110013687877     -2.74019699279969      0.24831052951286
  H           2.81615235346475     -2.95942752985982      2.03003832055874
