20
Coordinates from ORCA-job NEB_reactant E -45.680180702040
  C           1.28323515957900     -0.02557426510890     -0.07092689209026
  C           1.17701993322605     -1.35485265970181      0.08339487072509
  C           2.44787440640624      0.72761861981962     -0.58318476525200
  H           0.41519889125507      0.56647797855663      0.17626101853840
  C           2.27488014229723     -2.33473411859845     -0.25345431083185
  C          -0.66320290982253     -3.01524339607749      3.56592308928417
  C           0.21979692062713     -2.94487018519335      2.58881185712260
  C          -0.16331744703902     -3.06297648248115      1.14481293564671
  O          -0.03266824723991     -1.81360052472370      0.47123743536986
  F          -0.30699004684837     -2.90139280928940      4.84993498164978
  H          -1.72535964679472     -3.18323440373145      3.45380486660444
  H           1.26233944032209     -2.76815810943830      2.80778073585319
  H          -1.22279711739079     -3.31095398531927      1.04796683946062
  H           0.43337363905944     -3.84403471059530      0.66252876089624
  Cl          2.83930144552241      0.27198753666797     -2.27989226804040
  Cl          2.10780742379036      2.46683272407992     -0.56863079639743
  Cl          3.91863988750660      0.45319976641202      0.40377986526073
  F           2.75559910217701     -2.96900694001641      0.86880877790283
  H           3.12228832890470     -1.83125516529264     -0.71831578270169
  H           1.89318069446201     -3.11642886996853     -0.92214121900102
