22
Coordinates from ORCA-job R E -27.469251856390
  C          -1.38940825090016      0.18685815738363     -2.85138273907833
  C          -0.18202059150790     -2.56698874589619     -2.83152257719818
  C          -1.34126234371806     -2.20844743864299     -2.28957506304141
  C          -1.99419658621521     -0.91951899262589     -2.43806334209397
  C          -0.59610184894533      1.62229126660424      0.26075402780357
  C          -0.24761856284666      0.34993626180557      0.28287177191929
  H          -1.88540858428744     -2.92152772789032     -1.68375432100906
  H          -3.03921374407886     -0.88892457935780     -2.16152447428865
  I          -2.37475463142034      2.02887632842741     -3.03025228535232
  H           0.23500207266746     -3.54536125273422     -2.66683556087328
  H          -0.34761425185934      0.24104150616005     -3.11219260277700
  H           0.38439395441046     -1.91073120137165     -3.47041207588514
  H          -1.57415238480625      1.95525031485264      0.56381628860790
  H          -0.94927417017417     -0.40255727917901      0.62140653666411
  H           0.08459971013277      2.39024422581156     -0.06975631565024
  C           1.09690921577231     -0.17301103836195     -0.11164381372843
  C           1.78119440248013     -0.86763777857718      1.06533986195454
  H           1.72292501042352      0.64682696081504     -0.46955595374870
  H           0.97505156708019     -0.89583225328940     -0.92451005284463
  H           1.92239830547601     -0.16830380410888      1.88636072710305
  H           2.75341118963138     -1.25339902463950      0.76723298176056
  H           1.17496052268548     -1.69776390518513      1.42154898175632
