22
Coordinates from ORCA-job TS E -27.451801525480
  C          -1.23670172186506      0.90967002920480     -1.77531446537067
  C          -0.19419821912865     -1.42558282589437     -0.53409638259037
  C          -1.49630057539533     -1.31793801513646     -0.90065453426144
  C          -2.01335032636362     -0.18181335461014     -1.55697133720921
  C          -0.71316777230971      1.37252815931746      0.38975116010076
  C           0.03972110041157      0.36681346475082      0.90817148944972
  H          -2.21373926282075     -2.03761423700100     -0.53091400988573
  H          -3.08440631308819     -0.11233885317116     -1.68131313990833
  I          -2.06306008862641      2.67223203321434     -2.59752583758288
  H           0.11979254076900     -2.27138964872478      0.05449271337528
  H          -0.17497387576714      0.86008649887394     -1.92703598054605
  H           0.58485421654345     -0.91511850998873     -1.06796552629651
  H          -1.75809239778336      1.45840714775646      0.63103676251070
  H          -0.40495807713379     -0.33004628080120      1.60189911379015
  H          -0.23603726547034      2.26219335560296      0.01380385613654
  C           1.54235610550555      0.48530833213216      0.95032718867624
  C           2.25859976378433     -0.73806248663198      1.50897258055743
  H           1.78019070154912      1.33986449099781      1.59429346040667
  H           1.93374711268602      0.72673256998476     -0.04167038653815
  H           1.83986023226892     -1.01367823924718      2.47440191356432
  H           3.31566735140672     -0.52060675806092      1.64614093126010
  H           2.17419677082768     -1.58964687256760      0.84017043036141
