17
Coordinates from ORCA-job NEB E -39.504079073850
  C          -0.89265520429284     -1.01598996795682      0.70318301823774
  C          -0.24280611487364     -0.55941095973856      1.85071353495824
  I          -0.23445541896356     -2.90018940346167     -0.02330192222521
  H          -1.97285477614602     -0.94283183767235      0.67228153636415
  Br         -1.26289908169740      0.78872340952849      2.86536826529992
  C          -0.23460090368850      0.37908124183564     -0.51904384059989
  C           1.15181837813557      0.31796047284153     -0.33824600284148
  C           1.68339987228768      0.62413088503062      0.93583939345902
  O           1.00815635441010     -0.51441362112393      1.96192392071452
  C          -0.80221886597877      0.22414695071226     -1.90044808318695
  H          -0.76327243315291      1.17823354138154      0.00292607581188
  H           1.74060631712509     -0.29960858517345     -1.00198793803896
  H           1.31683197048223      1.52070782738099      1.42941094656899
  H           2.74199498376452      0.45558405305073      1.08020610847507
  Br         -0.71083360990518      2.02379542914282     -2.73573509919946
  Br          0.15856106595883     -0.98249091842751     -3.07534631818886
  Br         -2.68477253346518     -0.29742851735032     -1.90774359560873
