17
Coordinates from ORCA-job NEB_reactant E -39.540435240930
  C           0.98095297627551     -0.05774203876915     -1.48460495576359
  C           2.21433448035396      0.42446708001012     -1.44553160989764
  I          -0.65149078122187      1.22962317264838     -1.74262029510613
  H           0.75038177195275     -1.09967970343343     -1.37330065245307
  Br          3.66500592981152     -0.83078777736661     -1.26384661707752
  C           2.55950778665306      1.67593683851397     -4.27623192072596
  C           3.67457186944073      1.86829044277779     -3.58895098043252
  C           3.67983137508798      2.16393185051896     -2.11939145219889
  O           2.50948972303626      1.72637010391983     -1.45365079860783
  C           2.45707784955042      1.30752084530935     -5.70237943745559
  H           1.59089158030641      1.76994019793820     -3.79796895105912
  H           4.65008262423639      1.80270445593833     -4.04905261203245
  H           3.71036759293899      3.24462002407368     -1.94759888444403
  H           4.56954746729219      1.71540814114152     -1.65880164294773
  Br          1.32099869044238      2.61460046143701     -6.64298623253233
  Br          4.15275774100744      1.19619950932747     -6.63961256853058
  Br          1.57809132283587     -0.46330360398541     -5.82327038873504
