17
Coordinates from ORCA-job NEB_product E -39.553395598820
  C           2.23130021566011      0.19134896661163     -2.66236984823260
  C           0.79471944020944     -0.18941532491751     -2.84641292810154
  I           2.32323568861884      0.51266706315477     -0.51300910437445
  H           2.90961260199004     -0.64118861280930     -2.85538920333751
  Br          0.50943203995440     -2.11280082958562     -2.65240683900963
  C           2.60450574629104      1.44808126353104     -3.45402089789808
  C           3.72695674016700      2.22367316431987     -2.81943332820479
  C           3.68166237482539      3.52757958784546     -2.61960266268051
  O          -0.12216591732712      0.53613752166976     -3.02277527271694
  C           3.00361998277550      1.06911254407618     -4.88245368522546
  H           1.71462851891977      2.09015350834437     -3.52043110673634
  H           4.59960405115782      1.64613245623579     -2.54605801804993
  H           2.82349051451399      4.12116023603136     -2.88949658962265
  H           4.50634009304173      4.05162527176156     -2.17074391791369
  Br          3.27010661726793      2.68308594087110     -5.94501556817113
  Br          4.66676416046592      0.04109167430697     -4.92013162692529
  Br          1.62998713146820     -0.01424443144740     -5.77824940279944
