15
Coordinates from ORCA-job NEB_reactant E -30.656368778130
  C           2.09390052666043     -0.53058971070732      0.39433803207778
  C           1.58271377749433     -0.86001783085330      1.58746364789288
  C           1.80330548397876     -1.15396369777072     -0.82823245264718
  H           2.79488880475437      0.28815070051568      0.32437824677421
  I           2.16000566029646      0.21079772668470      3.31307774089169
  C           2.41718929855358     -3.91717581231162      1.14755203348529
  C           1.27740261248651     -3.69276497569543      0.51484100674564
  C           0.23204586233037     -2.73015926208304      0.99937332174649
  O           0.71285260437019     -1.79552603023579      1.95305803452329
  Cl          3.59454944630737     -5.01844468388408      0.56799791199310
  H           2.69806894738759     -3.43342577321583      2.07162488578354
  H           1.03799826273595     -4.20187464654220     -0.40555215097473
  H          -0.55967020398313     -3.27136412569437      1.52947369314194
  H          -0.21548443214632     -2.20645927863053      0.14682393749682
  N           1.60593334877356     -1.61828259957614     -1.85981788893078
