15
Coordinates from ORCA-job NEB_product E -30.661706434650
  C           1.87228408322253     -1.34365448014266      0.76019839236811
  C           2.94130256046866     -0.73550675382533      1.63701617961880
  C           2.24482806376238     -1.21983936536369     -0.63647863901059
  H           0.94737654940808     -0.76836914282018      0.91138390165773
  I           3.28670715906464      1.34982115189711      1.16440323456802
  C           1.61797603465176     -2.81925065650912      1.11962844942682
  C           0.42414471726565     -3.36358503406677      0.40945784656358
  C          -0.57373311717636     -3.96788318703561      1.02764147540739
  O           3.53430491828079     -1.25351490435915      2.51183628181338
  Cl          3.07031319485064     -3.78423464769013      0.63721460499580
  H           1.52584149725028     -2.92635357252494      2.20334558081319
  H           0.43803587282010     -3.25346138022802     -0.66611624854477
  H          -0.58827522595470     -4.09363200355113      2.09783874488890
  H          -1.41511987751390     -4.36224245678857      0.48592095888664
  N           2.52901356959946     -1.13819356699180     -1.73779076345299
