22
Coordinates from ORCA-job NEB E -56.930314595560
  C          -0.20999833628996     -0.74400177117074      1.94756512481344
  C           0.06320389171265     -1.65181215297762      0.87098241749247
  N           0.45559589860748      0.36921594712593      1.60275528027407
  H          -0.61703061546771     -0.95927665944514      2.91552843090590
  C           0.63513645476481     -3.00368421147012      1.18760607641999
  C          -0.47847629410510      1.86276655267068     -1.14516675902668
  C          -0.28964604058568      0.56868398543325     -1.35442458818273
  C          -1.18485926823697     -0.48917614731164     -0.78228723851128
  O          -0.44390699018895     -1.61983905475203     -0.32870261757018
  C           0.33530426776746      2.95586979481071     -1.71771544528581
  H          -1.28112223524685      2.21906887139066     -0.50924505203509
  H           0.51638796398197      0.19654583040579     -1.97088339906707
  H          -1.82496302495178     -0.89280176168540     -1.57408552149801
  H          -1.80002126882662     -0.09587233732354      0.03689456909178
  O           0.37634148839972      1.48196645410899      2.06023572602326
  O           1.22918409653897      0.06523022521109      0.61311962588969
  Br         -0.72679377574080     -3.92515021119986      2.26664792391389
  Br          0.97728701527363     -4.04452085301816     -0.39797670013798
  Br          2.26218826071126     -2.82826144596318      2.22816176802873
  Br         -0.83761891914923      4.04359468413115     -2.88616273468643
  Br          1.00182890526831      4.11388351490560     -0.27798712984479
  Br          1.84197852576337      2.37757074612360     -2.78485975700717
