22
Coordinates from ORCA-job NEB_product E -56.961153577270
  C           1.73924683463817      1.02296497431508     -1.29615197275812
  C           2.45022642998320     -0.20830590637561     -1.83293760615101
  N           2.73149837338273      1.75147558177598     -0.41189221929253
  H           0.91737790338414      0.74190103614821     -0.62993730664139
  C           1.97822073093090     -1.53496346979442     -1.24189561809285
  C           1.12576758058137      1.88984092540203     -2.43854509544764
  C           0.74111355076644      0.97552713352577     -3.57988669531000
  C          -0.48446643627584      0.52006700845172     -3.75818389123799
  O           3.37290758455424     -0.18881817251755     -2.58608336093068
  C           1.94490361940668      3.06197498178225     -2.98129180562226
  H           0.21100864128371      2.33562618451031     -2.02490752550795
  H           1.54098030665868      0.71136299065408     -4.25813360042582
  H          -0.72304609088319     -0.13060937216807     -4.58001828085512
  H          -1.29618091124683      0.77710957052231     -3.09806735867257
  O           2.32379223287821      2.03605527228951      0.67833191311417
  O           3.82432632045534      1.94659887205659     -0.85887984840000
  Br          0.05230029436259     -1.75744304740614     -1.27198685520107
  Br          2.81117530924410     -2.99550180974406     -2.18431945967392
  Br          2.60626021601402     -1.47733246849336      0.62961184077082
  Br          0.86236831474208      3.87297158188886     -4.41765932886682
  Br          2.17602537526850      4.47404367595780     -1.62969006904457
  Br          3.66149381987073      2.59225445721871     -3.74757585575268
