16
Coordinates from ORCA-job NEB_reactant E -27.377798993150
  C           2.19270549241292     -0.36113249033193      0.62459743004131
  C           1.64262434520484     -0.12455961262861      1.82589040182310
  C           2.06393613234273     -1.51021822842184     -0.16744122003330
  H           2.82033910790200      0.40422870762939      0.19035985416041
  H           1.84117487299948      0.81837535204881      2.32223569372711
  C           2.65378819238653     -3.04386453697754      2.84079274590113
  C           1.54667520857284     -3.15902800498423      2.12118100083719
  C           0.43527493308898     -2.14990986028489      2.12833012192360
  O           0.82977233243885     -0.86424803516879      2.57970723489131
  O           3.68412808537494     -3.91522484341367      2.84994583030430
  H           2.83733672210342     -2.21109567053406      3.50507041857769
  H           1.39678827598150     -4.00283987282556      1.46333408481057
  H          -0.35526730273977     -2.45092357427668      2.82599005406397
  H          -0.00070190613873     -2.07652993372926      1.12415150906013
  N           2.00265093470749     -2.41688830771138     -0.87163358244705
  H           3.51157457336198     -4.63414108838975      2.22788842235854
