16
Coordinates from ORCA-job NEB_product E -27.360589774460
  C           2.10375840341223     -0.94028489646940      1.29819612354317
  C           3.06806151406156      0.03761353683548      1.95002434530206
  C           2.55638970166285     -1.22902956699458     -0.04119923290753
  H           1.10053193704005     -0.50157813705813      1.25627761772340
  H           4.10182854644958     -0.33976801717790      1.99293361608836
  C           2.05931107927013     -2.24622017575175      2.14159467425125
  C           1.10441546720125     -3.22077414672035      1.51002382940799
  C          -0.06518201201788     -3.54293249349778      2.02839633468060
  O           2.74079341138691      1.09674357217152      2.39517276015027
  O           3.37543223198096     -2.74979545265756      2.20392130539551
  H           1.70694544518568     -1.97803085878182      3.15250812489072
  H           1.45208754563068     -3.64965983085006      0.57979307783032
  H          -0.41372733062433     -3.11418332300658      2.95426361267160
  H          -0.72459965175797     -4.24323933755740      1.54640904055947
  N           2.91076986427966     -1.45954953793130     -1.10223998116500
  H           3.35318384683867     -3.65861133455239      2.52122475157780
