22
Coordinates from ORCA-job NEB E -45.342765297720
  C           0.40005793865869      1.22922725522206     -0.55340347488490
  C          -0.59842827085685      1.11497211053935      0.42573478959663
  O          -0.01776732656761      1.45870358074535     -1.82856775574899
  H           1.33787979963688      1.68282326487198     -0.24786222650545
  O          -0.16946683579524      1.31002156754759      1.70859542317684
  C           0.79483865029031     -0.79226734025435     -0.53339456365376
  C          -0.43628675665715     -1.27814158409077     -0.96543142348781
  C          -1.53841445540968     -1.11973758108951     -0.09116957889217
  O          -1.71040857096838      0.53370464626272      0.17856549146985
  C           2.02640166835560     -1.00551755757921     -1.35586503249453
  H           1.02586423742767     -0.85410197424328      0.52589096823266
  H          -0.62269752876212     -1.35798276351193     -2.02470936724633
  H          -1.39408636763427     -1.43663128539997      0.93629438282187
  H          -2.51491284569616     -1.37151047306672     -0.48101360117521
  H           0.73157012625326      1.43473198541772     -2.43807320845702
  C          -1.08876042118693      1.01932756932855      2.74791288816127
  H          -0.90589812609638      1.74315355488193      3.54039985027980
  H          -0.92048656680934      0.00967902748452      3.13260207896105
  H          -2.11599363837621      1.10460666803098      2.38879846161495
  Cl          3.38770694147734     -0.00494365222696     -0.79018245662773
  Cl          2.53357521390445     -2.72530258158485     -1.18704627292094
  Cl          1.79571313481211     -0.69481443728519     -3.08807537222007
