22
Coordinates from ORCA-job NEB_reactant E -45.365259827620
  C           1.72236240834112     -0.11681125292261     -0.15169206680552
  C           1.79864023206977     -0.65451207643954      1.06855067341704
  O           1.44686034787232     -0.82227779225143     -1.31509600631275
  H           1.86559301635957      0.94827400706760     -0.23428990212496
  O           2.04067967133498      0.20486420175686      2.10328906211157
  C           3.89829741823908     -4.22111000555986     -0.17635898454330
  C           3.28428988241001     -3.07710987281087      0.08226030025952
  C           1.85223831416595     -2.97320339375685      0.50328853576233
  O           1.64594467781153     -1.95349536719536      1.45898647813637
  C           5.30423129746265     -4.36279514715835     -0.63139213567718
  H           3.38405686865077     -5.16758599754786     -0.08243316491259
  H           3.80203075569369     -2.13285039002502     -0.01064580799994
  H           1.51599458201803     -3.88983638055061      0.99326771417938
  H           1.23551491933004     -2.79116020217885     -0.38560475781995
  H           1.72098381201120     -0.28899581033083     -2.06677387369319
  C           2.01854839654830     -0.34299360090541      3.40667391074302
  H           2.20634505095440      0.49691755029790      4.07235567727214
  H           2.79693971854047     -1.09969332908705      3.53483795292337
  H           1.04726024297676     -0.78890277295943      3.63351554136962
  Cl          6.19921720021647     -5.40522101510737      0.51646282387847
  Cl          5.32992435926457     -5.16655310885946     -2.23296697856812
  Cl          6.17094682772831     -2.83054824347560     -0.77313499159531
