22
Coordinates from ORCA-job NEB E -36.973547139610
  C           0.72238096051049     -0.78392998818123     -0.14736739576048
  C          -0.21314705056834     -1.04469623664595     -1.15800698618319
  C           0.63394619775673     -1.51447618238425      1.17043092338531
  H           1.75986745760050     -0.71186464746341     -0.45788489907645
  N           0.14718856089618     -0.80940904153768     -2.47870863731257
  C           0.17221414593592      1.12859213015433      0.22329502407199
  C          -1.19314545405666      1.00510247491619      0.45276828136043
  C          -2.01406671160981      0.48931799004239     -0.58400516721109
  O          -1.47806400419412     -1.05521844490628     -0.89009405506223
  C           1.07873341717092      1.61430598257012      1.31821430375361
  H           0.47514690001964      1.45016036616149     -0.76993869461966
  H          -1.53945375428771      0.90190494545100      1.46947872093520
  H          -1.87193807046051      0.91374380411915     -1.57478109968897
  H          -3.05338851097607      0.30818749598379     -0.34395674717006
  F           1.76955269403694     -1.30306933473102      1.89051753427610
  F          -0.38226146741980     -1.15431291765963      1.98084951842963
  H           0.54989630054002     -2.60743646630915      1.02850701011102
  H          -0.56406962695563     -1.03876610207261     -3.15506859128974
  H           1.08604030414356     -1.04300975624923     -2.75382064208316
  H           2.11369394131283      1.34073124532952      1.12874273072593
  H           0.77848903982286      1.21235115582236      2.28177279111481
  H           1.02238473078208      2.70179152759010      1.36905607729359
