22
Coordinates from ORCA-job NEB_product E -37.032925345240
  C           2.47765230178852      1.80652360461249      0.46702362382128
  C           1.63267089887513      1.08157778453057     -0.59046804032869
  C           2.61375485653913      0.89543401881642      1.69003660738172
  H           3.49509649077884      1.90784163086284      0.07001743497360
  N           1.51117756384810      1.74473009736679     -1.75924168350060
  C           1.92010657104468      3.22433380713224      0.75587818114312
  C           0.42826369023056      3.19645713061464      0.93310020114277
  C          -0.41620428787365      3.84087040221531      0.15070723360534
  O           1.15423120604828     -0.01403447904284     -0.41544311638724
  C           2.59419326961688      3.86201997429000      1.97330271647288
  H           2.15372091376252      3.84924025823995     -0.11513413419447
  H           0.06571374942991      2.61559611254500      1.76745237423014
  H          -0.08435744747879      4.43665546159350     -0.68577453711669
  H          -1.47911829272805      3.81004402592365      0.31502915651023
  F           3.77203398696611      1.15445679935692      2.35313165586305
  F           1.62859768008193      1.05059516829526      2.60016528437648
  H           2.62442949857111     -0.16449872668338      1.39365605917567
  H           0.92343654100623      1.34183615719976     -2.47036626990246
  H           1.84342301428610      2.68282827881437     -1.88700190786795
  H           3.67650644700047      3.84278688118924      1.86577631885583
  H           2.32712204027114      3.34309897237031      2.88883984753736
  H           2.27034930793485      4.89640663975696      2.06431299420862
