20
Coordinates from ORCA-job NEB E -41.559917783380
  C           1.08424506415308      0.11572670599117      0.47137542828832
  C           0.53064076232116     -1.01671103700406      1.07190691335220
  C           0.92825134964449      1.46167255801987      1.05753228257983
  H           2.05972943872027     -0.03390375650690      0.02370629778867
  O           1.19901526365522     -2.17669501391123      0.81522717324526
  C          -0.24287286574747     -0.04394486911123     -1.34932153351779
  C          -1.45881069636042     -0.02260616222191     -0.66689088497196
  C          -1.84450748038323     -1.08425123426613      0.13253255997735
  O          -0.62260874337497     -1.08077676849191      1.56716108020089
  N           0.11126158239498      0.94565460997380     -2.20350627947107
  H           0.22564882983672     -0.99839025069304     -1.55492534817651
  H          -1.95884227737391      0.92791277620636     -0.55883677675849
  H          -1.56550537023731     -2.08796126530454     -0.15346710648498
  H          -2.74963236541683     -1.00768524903562      0.71137082597375
  Cl          1.39819896234987      2.73259290799412     -0.09940048970634
  Cl         -0.66772829313954      1.84325117802386      1.69208754712607
  Cl          2.09682383943471      1.63410147516119      2.45615729088549
  H           0.68837837340007     -2.91522647709777      1.17633660567454
  H          -0.25891208979233      1.86527948676095     -2.01544239486188
  H           1.04722671591546      0.94196038551303     -2.57360319114336
