20
Coordinates from ORCA-job NEB_product E -41.588242994290
  C           1.40068156802664      0.27891995060978     -1.83330894202736
  C           1.06708531040723     -0.88992558624524     -0.89230411396904
  C           0.96969654570649      1.61078056458399     -1.23460444658065
  H           2.49271286717707      0.32986303607844     -1.93634474777626
  O           1.77772798998899     -1.99313979473222     -1.15269122792342
  C           0.85822048226553     -0.05890783292833     -3.26083427568381
  C          -0.47531796377892      0.55680179139727     -3.58949056391900
  C          -1.58772994998767     -0.14393286405395     -3.70670563690704
  O           0.24885430174920     -0.86512173752287     -0.02713998381989
  N           1.90748028851060      0.28540802482779     -4.21337930466171
  H           0.74040305504153     -1.15046566348814     -3.31274824199347
  H          -0.46238161030055      1.61640106576575     -3.80192517274003
  H          -1.61769297863597     -1.20259223767622     -3.50647705886690
  H          -2.51932415439698      0.31648018758063     -3.98558838562276
  Cl         -0.76093674723591      1.72226537326603     -0.89966381877727
  Cl          1.85123810605830      1.84051084492296      0.30678488336759
  Cl          1.43283584996989      2.95636504762858     -2.30636812922535
  H           2.41265041040233     -1.88103127957324     -1.87469280217857
  H           2.03680335636411      1.29254794897886     -4.23909657654008
  H           1.64019327266810     -0.01232683941987     -5.14532145415499
