23
Coordinates from ORCA-job NEB_product E -32.343867178560
  C           2.12453165288371     -1.43261551864960      0.89832087709365
  C           0.82106537493218     -1.24801793169932      1.68065698939588
  C           1.89958419848622     -0.98559879904378     -0.54769598676428
  H           2.92776722216505     -0.84660695581852      1.35302928634956
  C           0.92210352406717     -0.33394955983803      2.87495222522599
  C           2.50000650085499     -2.91660138695692      0.93791666116170
  C           3.75815304171001     -3.22550024148614      0.20446136968258
  C           3.85136679272777     -4.15014350956913     -0.73353901853519
  O          -0.19073418386465     -1.80577987218113      1.34505651009878
  Cl          2.74906187721488     -3.38824797131549      2.66365852154205
  H           1.66379886373846     -3.52147951859831      0.57898131396802
  H           4.62048426970933     -2.64743062236396      0.50794430149087
  H           3.00078937567159     -4.73844193265301     -1.03585902971795
  H           4.77958415080979     -4.35518375638707     -1.23816700945403
  H           1.05838482187197     -1.52742819163041     -0.97314124247102
  H           2.78402880567823     -1.17785382206146     -1.15007850474164
  H           1.67696803676049      0.07846850673103     -0.57870344736724
  C          -0.40849190072780     -0.16332691888674      3.59375488609274
  H           1.30523376376817      0.63076319340326      2.53089384613208
  H           1.67138919020025     -0.76036376960224      3.54766924182569
  H          -1.14892856230325      0.25899348542597      2.91907279866337
  H          -0.29771212916177      0.49387224691051      4.45235531588298
  H          -0.77413468719276     -1.12862715372949      3.93366009444542
