20
Coordinates from ORCA-job NEB E -40.016852034970
  C          -0.14474351362866     -1.38565747820511      0.57842876904473
  C          -0.67896566353718     -0.78540634082881     -0.57295012577354
  Br         -1.32224872242913     -1.63346096762315      2.03997103355298
  H           0.56431834285302     -2.19436691185521      0.45774472644470
  O          -0.01792445943301     -1.06520167637350     -1.71889584606901
  C           0.94203157050383      0.25498379833443      1.11298061808442
  C          -0.04594780303229      1.22271636704338      1.24922642299090
  C          -0.75328892383086      1.60982037125533      0.08827597995007
  O          -1.49343421108964      0.19429113304316     -0.48807081079038
  N           1.61145581300593     -0.22271476884696      2.30227730661011
  H           1.60287824624378      0.22944441235708      0.25288611417901
  H          -0.50815119565982      1.32893961210782      2.22038896390824
  H          -0.16705825157487      1.85283283278177     -0.79154547523820
  H          -1.61461113911769      2.24969959446764      0.22201554713721
  C          -0.36893828539699     -0.33637041982801     -2.88642441721136
  H          -1.36559150109153      0.09676167856196     -2.78644543072131
  H          -0.34648960029533     -1.04151562852008     -3.71556469657666
  H           0.36303652198490      0.45523414463862     -3.06280729856664
  O           1.02413111490996     -0.14292685907959      3.35341789670123
  O           2.71954166061558     -0.68710289343076      2.14509072234351
