20
Coordinates from ORCA-job NEB_reactant E -40.041624985860
  C           1.70586494994156      0.26102532632509      0.34272709521830
  C           1.92115688212768      1.32159187139288     -0.43309083033792
  Br          0.97230765551311      0.46039794087168      2.05817518904968
  H           1.95195115950067     -0.74166605195143      0.04527621586716
  O           2.59773534600413      1.17914954019147     -1.60370233388083
  C           4.31268470741945      2.70328454745041      1.77856327520930
  C           3.11352742193916      3.22935686317669      1.56718866967948
  C           2.55819727014820      3.49732619845317      0.20320559828040
  O           1.50665284124524      2.57253491410002     -0.08237017543324
  N           4.78278463823059      2.41481413326567      3.10684630377345
  H           5.02361639388507      2.44334153515108      1.00782068642306
  H           2.45756300396236      3.41530723067857      2.40857871207889
  H           3.34554155310547      3.43006543030915     -0.55703026126105
  H           2.08675784907215      4.48264663117747      0.17044562990593
  C           2.04544338898249      1.83970738270110     -2.73716994388147
  H           2.82512180015068      1.83208684479314     -3.49536929732713
  H           1.75652243069094      2.86733029969162     -2.50751929963644
  H           1.17070989975550      1.29361273938515     -3.10029407949018
  O           4.11088021489578      2.77566834226443      4.04486697097886
  O           5.83958059342977      1.82721828057264      3.18395187478375
