20
Coordinates from ORCA-job NEB_product E -40.071823471430
  C           2.56840905389447      0.91372748406694      0.77223488385904
  C           1.85035402294868      1.24790540825455     -0.53206555926133
  Br          1.23056803074110      0.49198694752365      2.12079452242403
  H           3.17333328923598      0.01054161549345      0.63907588465264
  O           2.75095747402594      1.51900598205128     -1.47608149319187
  C           3.47116718253649      2.07086386702212      1.20318232172364
  C           2.71843841231780      3.30960316028283      1.57516054039410
  C           2.77663090619146      4.42631855069934      0.87513451601177
  O           0.66443559662970      1.26043778590334     -0.67406889376131
  N           4.34371297872390      1.62208073367187      2.34878720854542
  H           4.16335554217118      2.27458810370709      0.37450297353856
  H           2.10284368455904      3.23385137223053      2.45991690981476
  H           3.39086075392796      4.51964133937276     -0.00636956333108
  H           2.20959762876479      5.29502302914329      1.15745483196807
  C           2.26759277672572      1.84311516167920     -2.77881923787622
  H           2.55949284071091      1.04635377683351     -3.46272861974733
  H           2.73124028655952      2.78116319688353     -3.08055457717642
  H           1.18171538230990      1.94291465505601     -2.76002435434657
  O           4.55702994838434      2.42197603665386      3.21722173675376
  O           4.79106420864110      0.50660179347083      2.27664596900636
