20
Coordinates from ORCA-job NEB E -39.702383550060
  C           0.03405303701101      0.45889074315616     -0.23276864049802
  C           0.62555805339676     -0.50475687945921      0.75637203296250
  O           0.95396712528569      1.24013239850427     -0.93877082704621
  H          -0.68205384925153      1.11306557364525      0.29564254267361
  N           0.74914892895790     -0.11920513730592      2.07700484758576
  C          -0.68463143283620     -0.42259805298490     -1.32147678608253
  C          -1.43705729392905     -1.49664910418781     -0.71120277825865
  C          -0.67369893170690     -2.36232938167997      0.19777215972067
  O           0.62231659000534     -1.83181967127539      0.48079918247283
  I          -1.79471464712015      0.84373818957873     -2.64951646296993
  H           0.16076412330597     -0.81192211539444     -1.90231400000436
  H          -2.51124744894862     -1.55330420335719     -0.74509104241052
  H          -0.47549952800497     -3.35130087004224     -0.23848713590808
  H          -1.22826241605937     -2.53407230072886      1.13676446232372
  C           1.14080206866069      2.55378579097434     -0.44378466038057
  H           1.91999522456978      2.98923011066098     -1.06492344012098
  H           1.45104099341695      2.53983162180267      0.60302683512536
  H           0.22113329791292      3.13991613882343     -0.54164037114857
  O           0.92566087153546     -0.98330582127021      2.93017949755823
  O           0.68272523379833      1.09267297054030      2.31241458440573
