20
Coordinates from ORCA-job NEB_reactant E -39.764024369520
  C           1.47629168847214      0.15312429157083      0.01703527774475
  C           1.20608903397592     -1.16417121553313     -0.11812833634068
  O           1.25100460348959      1.03793078160013     -0.94520707008403
  H           1.90378921401772      0.49326119793670      0.95588277105474
  N           1.46296952867395     -2.02775256209405      1.00130305103306
  C          -1.06589397506309     -3.97615297345584     -3.06035286297440
  C          -0.79213717376738     -2.74141873721341     -2.68933751952278
  C          -0.48512275729086     -2.37510441090592     -1.27258003095608
  O           0.80169671716069     -1.74106664220173     -1.27317764438473
  I          -1.52231492762966     -4.49771371130554     -5.04020328121285
  H          -1.09848254612911     -4.80990689582561     -2.37965672397147
  H          -0.74856465238859     -1.92707542575819     -3.39720075640993
  H          -0.47402739061309     -3.26307532542037     -0.63157268845229
  H          -1.23858284305710     -1.66410608526297     -0.90327198132449
  C           1.70116453527499      2.35947361721364     -0.71081027763282
  H           1.30911317517628      2.96309107836212     -1.52664772537023
  H           2.79345635028800      2.40328847914382     -0.71714389967519
  H           1.32889292027646      2.74131156874865      0.24325831946668
  O           1.30729476791007     -3.22084579688780      0.83630937196814
  O           1.80506373122307     -1.51109123271131      2.05040200704458
