17
Coordinates from ORCA-job NEB E -30.873874471780
  C           0.41204741582543      0.68598337590653      0.54706066542072
  C          -0.21987640109688      0.71856253777442      1.81201167556167
  C           1.23292102102302      1.74177495964022      0.03782357017426
  H           1.60495357704244      2.18605784255814      0.98324375633630
  F           0.02467993841128      1.91859923523563      2.48436100154618
  C           0.41713999900394     -0.61840144788537     -0.22447598034577
  C          -1.01711768851285     -0.57697317107312     -0.74158131450480
  C          -2.00036045347301     -1.28974754840821     -0.22356965375450
  O          -0.93364649778079     -0.08307470648778      2.33617651832481
  N           1.39671894273526     -0.66697798686261     -1.25886053636489
  H           0.55652394955949     -1.46387453429465      0.45701697487018
  H          -1.16449604350228      0.08422121781170     -1.58432203543050
  H          -1.85701170771415     -1.91465055167560      0.64080305354191
  H          -2.99135034408832     -1.26446544167389     -0.64489597395152
  N           1.73666034433147      2.12164544184054     -0.99469708847930
  H           1.24551757821272      0.01040983388389     -1.99372328056548
  H           1.55669637002322     -1.58908905628983     -1.63237135237926
