17
Coordinates from ORCA-job NEB_reactant E -30.969896481740
  C           1.88127849670431     -0.22551187640704      0.01319906359989
  C           1.74892570176926     -1.40394722493763      0.64112549731707
  C           1.46304256614465      0.08167844430295     -1.28449370993753
  H           2.35898746872160      0.57930702915930      0.55258738242717
  F           2.21623946437828     -1.48514566285606      1.89817684577405
  C           2.42478841892853     -4.19715497328699     -2.21695428521288
  C           1.87363771122948     -3.00170778933566     -1.99575052310983
  C           0.75397685190532     -2.80398264349229     -1.02927041376213
  O           1.21875673467817     -2.56270786940740      0.31318127835442
  N           3.52709830790493     -4.42185064394540     -2.99762808221668
  H           2.04147084648477     -5.07804348099626     -1.71872656273400
  H           2.26259773850718     -2.12165416346301     -2.48464730328840
  H           0.16292702693559     -3.71603998899406     -0.92162280017142
  H           0.10609069308984     -1.97865848222294     -1.33803902551493
  N           1.14813543532526      0.39280543786425     -2.34492980917474
  H           3.80725269484932     -3.66035318297259     -3.59577888464212
  H           3.63059384244352     -5.33773292900917     -3.40052866770794
