38
Coordinates from ORCA-job P E -43.754485477470
  C          -1.88232784793223      0.14406147177357     -2.30534233147006
  C          -0.19026400742330     -1.65450278568520     -1.10746341205109
  C          -1.64851707721660     -1.98141259150880     -1.14724797477581
  C          -2.46801578998120     -1.09838690033036     -1.69568135074017
  C          -0.94729699016130      0.79524151905408     -1.26830763600756
  C          -0.07501173562094     -0.23589664352534     -0.50562938317501
  H          -2.00089276451595     -2.89292202387650     -0.69012797722829
  H          -3.53834734444539     -1.21929979505897     -1.70293732447310
  N          -2.93933635639148      1.04465224627442     -2.76265332190812
  H           0.36720907362978     -2.34846936529586     -0.48006301292447
  H          -1.25620502348917     -0.16455063270714     -3.17248050422380
  H           0.22077222227041     -1.69891595323059     -2.11368881634672
  H          -1.56903669873315      1.33243690905513     -0.55067708146524
  H          -0.52290761285137     -0.34882708389365      0.48809171719964
  H          -0.30430364766726      1.52136095417628     -1.76358750308617
  N           1.30759185095543      0.15353490199728     -0.23835232810145
  C          -2.47730054240147      2.37999137937780     -3.08410415261618
  C          -3.62218589775036      0.48477851222473     -3.91333336712347
  H          -2.11775741544446      2.88170889214365     -2.18941893496031
  H          -3.32013768859240      2.95044631653956     -3.47255771761470
  H          -1.67892845851503      2.38478763164032     -3.84470647823904
  H          -3.96489922363514     -0.52344659015621     -3.69609636962196
  H          -2.97310196024534      0.44231125113312     -4.80433793121646
  H          -4.48920992473370      1.10231933895216     -4.14505651111502
  C           2.12558774208601      0.73856842481092     -1.30494318298516
  C           3.60655886284981      0.65266461281375     -0.90585205677265
  C           1.97977755359037      0.04580661401664     -2.65765395610602
  C           1.39391036013943      0.96791140722613      0.96062339090734
  H           1.87197294639484      1.80985147146718     -1.44035742250902
  H           3.82090933322573     -0.34288775915645     -0.52675941889339
  H           3.87168137986294      1.38346462681378     -0.14779684113593
  H           4.23304530787392      0.83820991111474     -1.77469810658769
  H           2.28171010584086     -0.99499923591128     -2.57958445982843
  H           2.63297996581159      0.53896611629126     -3.37558391296702
  H           0.96735054032890      0.10239892378843     -3.04184707290123
  H           0.80521077437968      0.51198501344542      1.75425294314819
  H           1.03145872597174      1.99645358353523      0.80459003630623
  H           2.42397726253579      1.01436533067078      1.30404976360936
