38
Coordinates from ORCA-job R E -43.705740472150
  C          -1.52127563248503     -0.75189936466223     -3.00569680505467
  C           0.47588483799383     -2.99516238350979     -2.61135701249268
  C          -0.54447816065698     -2.68047383992042     -1.81184193162792
  C          -1.51822085443457     -1.63060821154998     -1.98599448740661
  C          -0.67206017959167      3.01142973122977     -1.18092385150431
  C          -0.51095451073985      1.97935662964986     -0.35155570558944
  H          -0.67573820624131     -3.26433836783246     -0.90735591304484
  H          -2.27459562125050     -1.57076935161827     -1.21810556296891
  N          -2.44868797029710      0.21405515858003     -3.26670656410579
  H           1.14791372843577     -3.79975853536786     -2.36738466522937
  H          -0.74654780634268     -0.81354467313139     -3.75711702952174
  H           0.67634400611853     -2.47893154385639     -3.53424670394874
  H          -1.60022257468639      3.55455688532251     -1.18334020868466
  H          -1.34551265286334      1.69176171629685      0.27707765209897
  H           0.09311087296132      3.37971353062124     -1.84084858649243
  N           0.60867630388011      1.22983052171632     -0.11504179453559
  C          -2.07064696529758      1.33496058232499     -4.09186851801387
  C          -3.50041656470576      0.48441844234697     -2.31896837976742
  H          -1.64111019103640      2.14797478003928     -3.49306336075716
  H          -2.95015149710785      1.71543706850571     -4.61586029198376
  H          -1.33779261044897      1.01845226768537     -4.83211391626011
  H          -3.12803697231094      0.99773439848720     -1.42470462266275
  H          -3.97392577719040     -0.44983643318303     -2.02270984942675
  H          -4.24957254665116      1.11588612064385     -2.79547186423879
  C           1.79677782017677      1.43698942445920     -0.92287736399866
  C           3.06348642395783      1.01601623422871     -0.17882281467971
  C           1.70346502311731      0.72361512865604     -2.27608856059945
  C           0.45969624570539     -0.04574039571540      0.54326427062004
  H           1.85841313319301      2.51691943639356     -1.09666214876727
  H           3.12942673572941     -0.06531861501293     -0.09479318404528
  H           3.08475158491569      1.45363762001761      0.81649154382294
  H           3.93468638105660      1.36699310851988     -0.72634770068600
  H           1.67007229695132     -0.35446966378406     -2.13725535988637
  H           2.56529031345256      0.96964555786466     -2.89129285305487
  H           0.79958350024580      1.03053092968402     -2.79486969677014
  H          -0.50575413047365     -0.08485827359428      1.04393107304336
  H           1.23670912450548     -0.17691391167268      1.29862442039314
  H           0.50845309241548     -0.87976170886276     -0.16472165217233
