38
Coordinates from ORCA-job TS E -43.681212419040
  C          -1.61305287282925     -0.44913102643832     -1.03449542730712
  C          -0.15107482577645     -2.41883761576453      0.43735374134205
  C          -1.49634846331196     -2.50101246822800      0.24011869838666
  C          -2.22825144350505     -1.57896691207049     -0.51413861652867
  C          -0.96593483440497      0.45392769124419      0.79589812156621
  C          -0.01368060698495     -0.29584185890781      1.45513868882214
  H          -2.05917893076159     -3.22590569462086      0.81582833452145
  H          -3.30522868104867     -1.64122772370726     -0.47601076743766
  N          -2.28445161129296      0.51340800064140     -1.77197012555349
  H           0.33655559048390     -3.11384170042746      1.10229662759622
  H          -0.58689328422477     -0.55504611867189     -1.35646089622037
  H           0.49086199885115     -1.93513975193420     -0.27439598671954
  H          -1.95464902934034      0.46353910876483      1.21780560883572
  H          -0.31537132411304     -0.87641801038879      2.31177631635653
  H          -0.67846826054196      1.35346050664037      0.28103601956659
  N           1.34598521816596     -0.08495004551636      1.39022044112790
  C          -1.49458897558495      1.54747678592262     -2.39226097247532
  C          -3.56684848552317      0.99549996549333     -1.31938379052804
  H          -1.26105634944216      2.37404161787066     -1.70439697872153
  H          -2.05033809853335      1.96072604656401     -3.23594833382553
  H          -0.56196776601939      1.12966526422516     -2.76701325348375
  H          -3.46289329239421      1.79874344190584     -0.57659533497488
  H          -4.13819859841482      0.18622514222237     -0.87695219391000
  H          -4.12254409409746      1.38671165117900     -2.17355878422002
  C           1.96047276997669      0.60011825521360      0.26905554932102
  C           2.55450686272698      1.93742123311630      0.72891917432221
  C           3.02383484323116     -0.23897122148250     -0.44660893070637
  C           2.19873514540043     -0.86809045287343      2.24543531074137
  H           1.16708292194073      0.81060575692834     -0.45204410368544
  H           3.37515645279089      1.77690024859114      1.42371423346275
  H           1.79223425593906      2.52972306900018      1.22883662920142
  H           2.93123808205626      2.49649461585594     -0.12393701358688
  H           3.89946939108105     -0.38922749757901      0.17956136826938
  H           3.33838562799152      0.27449188671471     -1.35229811825253
  H           2.62426704716660     -1.21093353960330     -0.72634316812080
  H           1.69067666847619     -1.05454525334259      3.19050619309442
  H           3.11383306497604     -0.31548488348178      2.45724091158352
  H           2.46772388689086     -1.83560851305541      1.80407082814037
