18
Coordinates from ORCA-job NEB E -43.086246332460
  C           0.58033574256480      0.18768037661301      0.10976847755515
  C          -0.10664397997608     -0.70874801018939      0.96474395519886
  C           1.45786727929323      1.23668416161789      0.52156233373195
  H           2.01521545514608      0.71449966404000      1.32983816082165
  C           0.08753083819378     -0.46034350879912      2.49005103386118
  C           0.48559907638189     -0.07494440323096     -1.37822914408906
  C          -0.90159986857341      0.38703199122336     -1.73302130991698
  C          -1.87618378218484     -0.44806983463913     -2.04683300203040
  O          -0.86115828018733     -1.59837576827994      0.61071261857678
  Cl          1.67001069952923      0.85494368833020     -2.32993936376385
  H           0.62322225912041     -1.13724525719007     -1.59648688320289
  H          -1.04194371816077      1.45765952105411     -1.70804359247140
  H          -1.73800282437097     -1.51557829493551     -2.03908576618595
  H          -2.85313155007534     -0.08586672729710     -2.31702923547367
  N           1.94008247052944      2.29233864694898      0.19779978214076
  F          -0.22763785185850      0.80087499796057      2.83428947753291
  F          -0.63722589061483     -1.27902061073335      3.23206956087196
  F           1.38366392524320     -0.62352063249357      2.85783289684301
