18
Coordinates from ORCA-job NEB_product E -43.178235194940
  C           1.36560759338212     -1.33835446923294     -0.99742702523223
  C           2.01886481339898     -2.43051969244266     -0.16994258910744
  C           2.04976904973765     -0.06826671465684     -0.83689271767479
  H           0.34440351346362     -1.21162708530832     -0.60412160930658
  C           2.37821913420491     -1.97888644791449      1.27929661814687
  C           1.28917721157658     -1.73545623392448     -2.48267424493314
  C           0.46106884385099     -0.78615944645713     -3.28081715600910
  C          -0.52225734786100     -1.17291957467732     -4.07256390737650
  O           2.23206489697158     -3.54407028295887     -0.53275003884711
  Cl          2.97408609005848     -1.73854964174615     -3.14393590424811
  H           0.92604818898892     -2.76241146995998     -2.56861014161582
  H           0.73824570638861      0.25519346450561     -3.19250662940297
  H          -0.79444260519326     -2.21032716621213     -4.17697608446949
  H          -1.09248450225216     -0.46578922793889     -4.64845451501586
  N           2.57361870560261      0.93945151696268     -0.73802099255240
  F           1.44481483713697     -1.15244298533388      1.77751908727579
  F           2.46531881302988     -3.02064256713925      2.10203754587907
  F           3.54537705751451     -1.33212197556494      1.31014030448981
