18
Coordinates from ORCA-job NEB_reactant E -43.190742448830
  C           1.96251287834961     -0.41076693212143     -0.37239122762620
  C           1.24177406465969     -1.53947240756673     -0.28242533473223
  C           1.91299842174835      0.53816195082159     -1.40671136974779
  H           2.66115247084428     -0.17161166276063      0.41731985282873
  C           1.43573873936492     -2.47131850785452      0.90566539843352
  C           2.13212982041974     -2.37671674476057     -3.25111179466868
  C           1.13681174230462     -1.50822864007823     -3.32745275221001
  C           0.01949176967775     -1.43615257224166     -2.32653668850390
  O           0.31657987505558     -2.06838826269088     -1.09179250612335
  Cl          3.39569973988663     -2.43311112191630     -4.40517817326982
  H           2.22977974870413     -3.11166020551140     -2.46541606514953
  H           1.07727799621638     -0.79351802525712     -4.13328995004696
  H          -0.85574164899234     -1.97897117386429     -2.69947399824463
  H          -0.26415778818298     -0.39108768849252     -2.15813860236750
  N           1.91897860788352      1.35394310767625     -2.21346993679804
  F           0.28364707309212     -2.72916252557664      1.52982915400166
  F           1.94218154161133     -3.64808034052124      0.51209979089503
  F           2.27444494735668     -1.97655824728366      1.82117420332970
