40
Coordinates from ORCA-job P E -48.887027922420
  C          -1.75060469379289      0.20476407226388     -1.85376957639770
  C          -0.52579584089487     -1.58965291341279     -0.19932052359736
  C          -2.00699829168115     -1.69224653443344     -0.36951665196730
  C          -2.60678006694817     -0.83545408084803     -1.18077449236556
  C          -0.91576497644228      0.88687071055039     -0.75173128781026
  C          -0.09248198682122     -0.12715099926655      0.06985606233931
  H          -2.54163567541345     -2.46396479428556      0.16407382957730
  H          -3.67095351170428     -0.84379892880352     -1.35925697195692
  N          -2.44522816580366      1.17331357889323     -2.68690262760468
  H          -0.17208853077854     -2.22655090539782      0.61211197681704
  H          -1.03396468006481     -0.30724358001179     -2.50538679849049
  H          -0.03845337983102     -1.92810589563635     -1.12005305866586
  H          -1.59233890066753      1.40733575033259     -0.07481402142907
  H          -0.27817774196056      0.07091229127840      1.13035063735398
  H          -0.26076460167075      1.62923692845199     -1.20837202514472
  C           1.39100654203708     -0.00545797939063     -0.16929398840814
  C          -3.11482468631887      0.64502522210700     -3.88283838885611
  C          -3.01790181671091      1.70441274605808     -4.98721834294763
  C          -2.52909990877959     -0.65937507950315     -4.42150219066542
  C          -3.32094622722677      2.05184938449925     -1.93434701376174
  H          -4.18290692144788      0.45986549799832     -3.66497629930846
  H          -1.97330935555658      1.87462468972562     -5.23366300865328
  H          -3.44896351961162      2.65018156680606     -4.67239777826423
  H          -3.54207025354080      1.36924063116029     -5.87891142225146
  H          -1.48219125963552     -0.53253302544244     -4.68674384096445
  H          -3.07354767716899     -0.93861131414663     -5.32113087476917
  H          -2.62236428240386     -1.47219044022528     -3.70573699061769
  H          -2.72351811115642      2.76434027778636     -1.36694199753143
  H          -3.97975720331277      1.51120757390353     -1.23921800961830
  H          -3.94761066555826      2.61920120762151     -2.61775186732410
  C           2.27317145256685      0.03351574176581      0.90266424235538
  C           3.63930194011924      0.11567884235520      0.69725087328119
  C           4.14566036744899      0.15915276344654     -0.58959476945802
  C           3.27647409697342      0.11944942543878     -1.66656083549334
  C           1.91203057808411      0.03607894955573     -1.45759185272144
  H           1.88587853900698      0.00107606854197      1.91169666451012
  H           4.30953193483928      0.14677190738318      1.54415738086101
  H           5.21132942149082      0.22443378480719     -0.75303315557118
  H           3.66397396300214      0.15325206684893     -2.67474086488624
  H           1.24628409733511      0.00818479122413     -2.30739013959358
