40
Coordinates from ORCA-job R E -48.823935884380
  C          -0.70209623686934     -0.91658871635751     -2.75761047560697
  C           0.42615107519423     -3.63016147558921     -2.05582876012232
  C          -0.85809927039122     -3.27080048783625     -2.04347981500544
  C          -1.42113204975033     -1.97553167283481     -2.33502941057449
  C          -2.26072668696643      0.97331823753481      1.13522539841381
  C          -1.33005922699176      0.20974222778518      0.57659710825919
  H          -1.59055375418192     -4.02446496605260     -1.77612467832835
  H          -2.48823535853922     -1.89610504130727     -2.18888743164057
  N          -1.11882876713974      0.35825286245208     -2.98378079785035
  H           0.72616510748088     -4.63648780993030     -1.82013543242408
  H           0.35699859080906     -1.05156974149904     -2.92358254415046
  H           1.22087984700256     -2.94717692897441     -2.30262739922143
  H          -3.21264676717161      0.56938924814634      1.43567750123038
  H          -1.52883886950050     -0.84431394829013      0.42856343870186
  H          -2.11549290125158      2.02265474124383      1.33028715066679
  C          -0.01002983907079      0.63794242059253      0.12926820348708
  C          -2.51912251091768      0.71734108503386     -2.85865954518981
  C          -2.70020809688028      2.18203901663098     -2.46742784306958
  C          -3.29271099933758      0.39626787441483     -4.14333093114378
  C          -0.23310493610684      1.28689226254369     -3.63737480108010
  H          -2.92164292964642      0.10958012476455     -2.04183904356189
  H          -2.42027261726078      2.84934998144948     -3.27833189804868
  H          -2.10135435719376      2.41194379374135     -1.59091986385596
  H          -3.74510686291994      2.35999770429150     -2.22598769972717
  H          -2.94501712079064      1.01770397964144     -4.96555633625175
  H          -4.35429646664555      0.57897622612786     -3.99946708282114
  H          -3.15000444604294     -0.64722228231803     -4.41312028924380
  H           0.74018682197493      0.82320493783001     -3.78246234550113
  H          -0.08983439452933      2.18227911816964     -3.02791047184566
  H          -0.61900674918619      1.58593946306574     -4.61722958406558
  C           0.34103513062873      1.97896958618286     -0.02485776708967
  C           1.59889083167926      2.33385234294303     -0.47296738183001
  C           2.53607867008511      1.35808056777063     -0.77040766909878
  C           2.20490302772590      0.02255623419048     -0.61282840008080
  C           0.94506574697539     -0.33406314458900     -0.17200382195101
  H          -0.37647836859352      2.75427260073517      0.20063886599976
  H           1.85161216861674      3.37810710170414     -0.59234405628956
  H           3.51832181959890      1.63829485302930     -1.12218067248488
  H           2.93253117661175     -0.74418980493837     -0.83782504195017
  H           0.69215056949244     -1.37812257149838     -0.05807837565347
