40
Coordinates from ORCA-job TS E -48.807067490410
  C          -0.53728713856714     -0.42675860900897     -1.12575114230134
  C           1.19198355559319     -2.30899242918943      0.19043835042636
  C          -0.02897984883348     -2.65369414018567     -0.30731063603664
  C          -0.87890922187677     -1.75438526118663     -0.96568033292106
  C          -0.42252327303175      0.03624476021784      1.07521493529454
  C           0.50753616737922     -0.75428176428888      1.69716817551478
  H          -0.44978503374856     -3.61297570379313     -0.03358028152575
  H          -1.88120229975958     -2.08966860400584     -1.18774097311447
  N          -1.32619572925475      0.53683792520493     -1.68816684855119
  H           1.75607215411539     -3.01901469594555      0.77343287186287
  H           0.51371461546824     -0.18288755934427     -1.15917959991330
  H           1.77844595692162     -1.52278859701272     -0.24822360378589
  H          -1.46934775279497     -0.17810778150185      1.20113569593184
  H           0.15267747243756     -1.58123407437196      2.29590351654213
  H          -0.17932040086465      1.04471900698376      0.79081736225575
  C           1.87458724517962     -0.32532890364836      1.98086967594045
  C          -2.77523013710043      0.47572757958639     -1.61093379081786
  C          -3.37809910707065      1.68046690308149     -0.88311021199689
  C          -3.37825757326304      0.32315258206505     -3.01035767749434
  C          -0.72663601822001      1.80686029868340     -2.01209970382123
  H          -3.02347605124644     -0.41642479333027     -1.02986581707242
  H          -3.26538263770205      2.59373337482850     -1.46135289002979
  H          -2.90386110496164      1.81583478863642      0.08605982621354
  H          -4.43969014984486      1.50945551312664     -0.72319575674496
  H          -3.18850192515884      1.20787435473984     -3.61333749610731
  H          -4.45337753665862      0.17970351245003     -2.94210548037620
  H          -2.94068687314811     -0.53645426764266     -3.51164781148507
  H           0.29353479990214      1.65016891524533     -2.36036072422021
  H          -0.69841874793959      2.49273682476063     -1.15582094774972
  H          -1.28651150639164      2.28299504708055     -2.81580608535127
  C           2.50534016926652      0.70119224466916      1.27603224235084
  C           3.79643224972554      1.08447017738441      1.58241132041180
  C           4.49186695334294      0.45368485538008      2.60059670559469
  C           3.88239140181305     -0.56955112149078      3.30752909301912
  C           2.59302343526164     -0.95559335406376      2.99816105430804
  H           1.98413311434369      1.20218451273396      0.47328608504523
  H           4.26643574540130      1.88085608574836      1.02217772050186
  H           5.50128145655192      0.75546300605373      2.83870813950578
  H           4.41741847905581     -1.06950084717316      4.10254259856293
  H           2.12480509567819     -1.75671976147664      3.55314244213436
