21
Coordinates from ORCA-job NEB E -45.943016088240
  C           0.36651260644428     -1.10243885866562     -0.01599165985561
  C          -0.75412144551077     -0.97374925100268     -0.86978574662342
  C           0.13174119071663     -1.71514904570757      1.24813136847977
  H           1.29972566881918     -1.41514329276591     -0.47576371137308
  C          -0.56007862540038     -0.89380608109989     -2.36803018813714
  C           0.60243297420851      0.75404924734876      0.43231106717373
  C          -0.63742404525893      1.07353610940009      1.00619224067828
  C          -1.78534518729211      0.99984690803400      0.18027222267822
  O          -1.87605736158062     -0.55123520117669     -0.39267928045467
  C           1.85527347589901      0.91509952268365      1.25457517734161
  H           0.78706597227226      1.10536764360885     -0.58066015803622
  H          -0.75782004476678      0.94741643647859      2.07126162788728
  H          -1.73854568632470      1.51905173410663     -0.77349115382468
  H          -2.74380733299902      1.10784015063798      0.67051469177726
  N          -0.08959873478376     -2.26110770604779      2.22824634870279
  F           0.75979638989134     -0.97680252228440     -2.71726001923429
  H          -0.94470583523398      0.06188443878676     -2.74951579745043
  H          -1.08552534607780     -1.71428142913904     -2.87061075416199
  Cl          2.22359498677094      2.67098403462129      1.29478542953466
  Cl          1.69803063620535      0.34808730170184      2.92374296324246
  Cl          3.24885574400136      0.10054986048115      0.50375533165546
