21
Coordinates from ORCA-job NEB_reactant E -45.984069009430
  C           2.03616331329365      0.48423780839007      0.62535532644563
  C           1.58578098572142      1.30108328678976     -0.34008484623114
  C           2.06565827774735      0.70924007974306      2.00679883584915
  H           2.40227789088535     -0.49004308559434      0.33084261040454
  C           1.58404647056384      0.87137575897975     -1.78807067553504
  C           3.05198687771002      3.74764174301973      2.48484654981530
  C           2.53258686889437      3.71672123721803      1.26866767977559
  C           1.13625430122048      3.26282862855541      0.96555801654370
  O           1.07392292651697      2.54601193196139     -0.25730565644028
  C           4.42708228366091      4.19646091915363      2.82071460197856
  H           2.48885297077031      3.41159402550846      3.34461627705775
  H           3.10178904461190      4.03600094605994      0.40656110709282
  H           0.50231244519777      4.13905129063353      0.78875609298660
  H           0.71561253873444      2.67967825496622      1.78963711639582
  N           2.09588467009142      0.82631155930210      3.14943813196416
  F           1.91928919095743     -0.44245596965384     -1.93356108021458
  H           2.31127376930073      1.46071232695023     -2.35945326023540
  H           0.58587352952649      1.01104906354151     -2.21779672023134
  Cl          5.31620411271315      2.83132558188885      3.55812441075408
  Cl          5.35085729261453      4.77238943221837      1.42808737761079
  Cl          4.33939023926745      5.52298518036816      4.01576810421331
