21
Coordinates from ORCA-job NEB_product E -45.986789040710
  C           2.82651866678810      2.10314832366281      0.33601904870750
  C           1.56583229874212      2.09749136524886     -0.53003016377534
  C           3.10941974239685      0.73495835326025      0.71561534438796
  H           3.65647375082016      2.45328801873662     -0.29297927039585
  C           1.66546254839934      1.24698608287759     -1.78246360079271
  C           2.65077094801251      3.03129996770711      1.55802894337254
  C           1.90990325940448      2.33717078066392      2.67067146950880
  C           0.68296168121706      2.65994985422037      3.02920742101621
  O           0.56843954612265      2.69937902154964     -0.25049058465727
  C           4.00164235919652      3.54709093578892      2.05057880249741
  H           2.06512188921189      3.89812834754878      1.23075978825802
  H           2.44477996219316      1.53274683493565      3.15522391789352
  H           0.13778913823813      3.45152635451822      2.54320803994316
  H           0.17193276741208      2.13428719931484      3.81644682884210
  N           3.29171167244101     -0.35698461656071      0.99411661641451
  F           2.95924884613147      0.97537696867764     -2.12442952403346
  H           1.19225142964512      1.75839054831291     -2.62732372870717
  H           1.16077556061264      0.28862726922916     -1.60544122441619
  Cl          3.75643235857470      4.58840595193538      3.47008614275483
  Cl          5.09388780625647      2.21508545351590      2.49835858176870
  Cl          4.79984376818353      4.52064698485614      0.78303715141271
