23
Coordinates from ORCA-job NEB E -49.392876023270
  C          -0.51207186403810     -1.19052489306171      1.78760516203271
  C          -0.94261939051771     -1.10769369294608      0.52575410867253
  C          -0.55368365978382     -0.04297372610534      2.74694798061754
  H          -0.10817174107537     -2.11692529867513      2.16144241324019
  C          -0.66155601899025     -2.27506686544704     -0.39968188920305
  C           0.99063595301183      1.11580701268959     -0.69028492676343
  C           0.03007774358923      0.98227223593680     -1.59139542328809
  C          -1.31485943207192      0.38251798107147     -1.31506502832929
  O          -1.47533537822817      0.04614669331299      0.05355058173135
  C           2.27858252888345      1.82106655132051     -0.98015372320269
  H           0.82397956900253      0.95792909396276      0.36306552176797
  H           0.18996899263561      1.27646410622416     -2.61960363994470
  H          -1.49641419955271     -0.45961705714430     -1.98747692918988
  H          -2.08351514120099      1.13859635996387     -1.50962843480394
  F           0.73161263091603      0.41775898506454      2.96322474794753
  H          -0.93452769177435     -0.34582455152106      3.72724342739666
  H          -1.13006900487073      0.79361438498122      2.34548524275604
  F          -1.67518179285446     -2.52465662915738     -1.26716735591705
  F           0.43899135887921     -2.04411104050647     -1.16021345107982
  H          -0.49092738946998     -3.19988338632675      0.17008093022405
  F           2.52979636622729      1.91972917007433     -2.30668587082014
  F           2.21466913765852      3.10367842245610     -0.51937917804289
  H           3.15061842362484      1.35169614383293     -0.49766426580155
