23
Coordinates from ORCA-job NEB_product E -49.404894231950
  C           2.89838908964698      0.94934741283478     -0.96165232966163
  C           1.66560637612841      0.09511178667055     -1.17529968492629
  C           2.97415499494544      1.37904320299570      0.50456468663428
  H           3.78945730634286      0.35579360706670     -1.19712131453887
  C           1.68806447866902     -0.80636424525489     -2.43572482155754
  C           2.81484864627091      2.12537649700843     -1.97300437242148
  C           1.68773064486729      3.06578776913997     -1.64307502428967
  C           0.55260772548771      3.10129755418521     -2.31397820217571
  O           0.68623900946725      0.11421824923543     -0.48882145063890
  C           4.13502628282106      2.89856965720057     -2.06299981967768
  H           2.65620465663794      1.69834895128495     -2.96911236306252
  H           1.86110689079766      3.72007981897636     -0.80080670754782
  H           0.36357205093634      2.45241331713688     -3.15334608691385
  H          -0.23931252736515      3.77701683595364     -2.04347076472379
  F           3.27848740088389      0.27669518914291      1.26324222123469
  H           2.00934364634782      1.75311639498715      0.85972365936866
  H           3.76726531230553      2.10788316926503      0.68187371363518
  F           1.02725318358541     -0.16905652000669     -3.43625378202888
  F           2.93673222814747     -1.03368521120433     -2.89276132610568
  H           1.19017586996545     -1.77027174719881     -2.25532370972154
  F           4.40379916789599      3.59860875470558     -0.93468202742195
  F           5.18150899550603      2.06220658250525     -2.24318363530078
  H           4.12543856970869      3.61666297336965     -2.89778685815822
