23
Coordinates from ORCA-job NEB_reactant E -49.390100678280
  C           1.93281058630426      0.16976917906973     -0.19182357840534
  C           1.48877627191829     -0.10017702010252     -1.41798403386300
  C           2.13612870448682      1.47779426050535      0.50993818841078
  H           2.19105093148652     -0.67226187065649      0.43270255186039
  C           1.35148825836789     -1.54994205354100     -1.85235652716685
  C           3.20582558914955      3.65103369336869     -2.34148192517918
  C           2.70562883161506      2.45930479395019     -2.62209399597418
  C           1.26598202055350      2.08408305672041     -2.43221909176188
  O           1.06246738424421      0.68988843262357     -2.43442659706889
  C           4.64198085517143      4.02124652676344     -2.55883707542016
  H           2.61076465419413      4.44656588977462     -1.91651689536756
  H           3.33059064016691      1.68405584156715     -3.04505887541898
  H           0.69172553456634      2.42757917869998     -3.30116219831974
  H           0.84379975677401      2.55193364308678     -1.53627888575461
  F           2.80290663866328      1.24997959663522      1.68678926246824
  H           1.18408655300240      1.94658477454930      0.79214548865382
  H           2.75033476259006      2.18337893517790     -0.06025140493054
  F           0.05523965032324     -1.85941551136775     -2.09171194709007
  F           2.01428528824956     -1.76565636969102     -3.01129626474340
  H           1.73510473639867     -2.25842718089407     -1.10388999281330
  F           5.18540949233063      4.49268265919773     -1.40511305438435
  F           5.39420141772584      2.96191151240790     -2.92983262293493
  H           4.76911144171739      4.80888803215488     -3.32194052479626
