20
Coordinates from ORCA-job NEB E -33.649436690800
  C          -0.82153045681801      0.77682100443834     -0.77189235336329
  C          -1.81415181793836     -0.19894971014713     -0.72146818036160
  N          -0.03032336376915      0.91449160507294     -1.90239436149698
  H          -1.01221003548275      1.70658042856640     -0.24789140112230
  F          -2.74554352198321      0.01569787551774      0.28800872022786
  C           0.41586590437350     -0.23114606445697      0.60531482137614
  C           0.53257772544660     -1.46933183083044     -0.02041188010612
  C          -0.56820450889607     -2.31818606652845     -0.10070456230947
  O          -1.71846260710818     -1.36099273198007     -1.15602167020391
  O           1.50094526892756      0.59815634005886      0.58715784947553
  H          -0.25314786873053     -0.11776543628100      1.45353828523606
  H           1.34981203539938     -1.58938979000651     -0.71718490005351
  H          -1.24943485785430     -2.37287229606154      0.73633210009397
  H          -0.48557420853385     -3.22491194668312     -0.67738670405764
  H           0.86569723311281      1.34650129514192     -1.71588596542841
  H           0.07345239995358      0.04087878105760     -2.40461924640631
  C           1.48121411894594      1.66032028916383      1.51364034787507
  H           0.65878505110386      2.35412953345793      1.31237972805505
  H           2.42966262415992      2.18204108372827      1.40097636513154
  H           1.39057088569129      1.28792763677142      2.53851300743833
