20
Coordinates from ORCA-job NEB_product E -33.676891486440
  C           2.44100873406719     -0.14742561385449      2.00679909886536
  C           1.31036726983564      0.81995375432072      2.23568733185656
  N           2.20988994447477     -1.02732152034571      0.88080945353090
  H           3.36410498154576      0.41702905672496      1.83237311289329
  F           1.72291258043852      1.94138929070308      2.88774651857981
  C           2.61596928674850     -1.02507104204144      3.29079718671064
  C           3.69826592460642     -2.03845210378479      3.02919452530537
  C           3.57604494383259     -3.31770499224382      3.32533748260940
  O           0.17854091758639      0.71518906477502      1.91120872176404
  O           2.80718742514241     -0.25561094320363      4.45447953808817
  H           1.66663601354193     -1.54394944021789      3.47364524467860
  H           4.60358182556002     -1.65472571780048      2.58171312943764
  H           2.67725303072563     -3.71498117983150      3.76698076035304
  H           4.37014437346388     -4.02043219356154      3.13984278589007
  H           2.08485689994116     -0.49201115600123      0.02822655011382
  H           1.36458470492106     -1.56923338004505      1.02735329482354
  C           4.07648242248160      0.33381457545811      4.63369936280700
  H           4.85707322115339     -0.42401689695150      4.75248283421430
  H           3.99522504220111      0.91514931573848      5.54981036853316
  H           4.34097045773204      1.00571112216272      3.81171269894528
