22
Coordinates from ORCA-job NEB_product E -45.804434221550
  C           2.29809097101325     -1.58121439890642      0.41111316962141
  C           2.14687560752404     -1.03929718661049      1.83816972019578
  O           1.33001577506239     -0.92793843723710     -0.36977597232287
  H           3.31137505970166     -1.29130242558097      0.08723453073105
  C           1.95636419640745      0.39899766741039      1.82818543843163
  C           2.17681498495085     -3.13451467349969      0.41439716434538
  C           1.03596673801722     -3.59977546811949     -0.44831519329951
  C          -0.12147481207751     -3.99330136677097      0.04501123340758
  O           2.18732086808567     -1.70041968702200      2.83838146402115
  C           3.48232001313469     -3.80599357998635      0.00202228302448
  H           1.98264515578757     -3.43995023556869      1.45135885733373
  H           1.21103433175405     -3.58268767531285     -1.51379161619725
  H          -0.31253882856140     -4.01311841685611      1.10507366787819
  H          -0.92778187333579     -4.30686512403498     -0.59417767355793
  C           1.74470833902046     -0.53440884219072     -1.66150412771965
  H           2.04396678083285     -1.39014153599763     -2.27172157555856
  H           2.57442355765067      0.17832724744244     -1.60780991421658
  H           0.88055065172020     -0.04961627505947     -2.10941816362406
  N           1.83500197582163      1.53626059527935      1.81043913994846
  Cl          3.29343734044016     -5.57228200938545      0.07079329631812
  Cl          3.97015608334080     -3.36483720714637     -1.64941947923211
  Cl          4.80352708370908     -3.33702096484642      1.10765375047157
