22
Coordinates from ORCA-job NEB_reactant E -45.815771875140
  C           1.33079900462543     -0.47042093992560     -0.01127274429679
  C           1.19951223881126     -0.58030433530302      1.32438266913428
  O           0.99601527744669     -1.42130646699021     -0.91743075562432
  H           1.72730668270013      0.46006101925338     -0.40230616104894
  C           1.55479094853301      0.55695303791239      2.09318953613239
  C           2.35219130326267     -4.05656939885132      0.01062448470922
  C           2.08662259189476     -3.38155488519587      1.11723330649952
  C           0.71561497794514     -2.90449300309743      1.48904452314463
  O           0.74476951957265     -1.62617527702750      2.08456050029842
  C           3.68881974207126     -4.55140562259250     -0.40322360437382
  H           1.56843874790802     -4.30229985288302     -0.69243549809636
  H           2.86596702108452     -3.12124135089920      1.82033700132586
  H           0.30710910712438     -3.55175457020221      2.27359097888830
  H           0.04748644700800     -2.92420354417025      0.62179672577800
  C           1.47105779165844     -1.20436896047667     -2.22854385973077
  H           1.02510543966168     -1.98061731379425     -2.84681981478484
  H           2.56068757690940     -1.28952616817430     -2.27001783046148
  H           1.16893142885046     -0.22095361732420     -2.60046857942339
  N           1.85341995438361      1.48064218979150      2.70284913418377
  Cl          3.64284453193319     -6.33598798201920     -0.55507052167046
  Cl          4.08986880130794     -3.87879216777773     -2.01267148836661
  Cl          4.99334086530736     -4.12148079025282      0.71025199778340
