20
Coordinates from ORCA-job NEB E -33.519322871950
  C           0.32872039260084     -0.99696981501463     -0.03563684145929
  C          -0.91663989965869     -0.43675369917242     -0.35722742639853
  C           0.54232408763726     -1.56679056209130      1.34858586183437
  H           0.77145499116837     -1.61383841494612     -0.81297936712346
  C          -1.30950894455682     -0.39079371660698     -1.82279879662323
  C           1.42659164530009      0.60146904482968     -0.02666075636245
  C           0.59932146022685      1.72554154622791      0.05231351595841
  C          -0.48343092307762      1.62353417972427      0.97545024500069
  O          -1.44482576747428      0.46927579166193      0.41070019715138
  F           2.20542512066001      0.50375819337061     -1.13210643813383
  H           2.00140377816211      0.29977982527664      0.84352444362251
  H           0.41410269789532      2.25675450007416     -0.87288267284772
  H          -1.16496787705622      2.46530097140712      1.01304338193340
  H          -0.22219337135401      1.26681720838268      1.96914375940251
  H           0.12742365464144     -0.92279336130281      2.11817000572356
  H           1.59676157437631     -1.74029320977644      1.55058548853553
  H           0.03065059639502     -2.52743075981825      1.40494958845274
  F          -2.61704859721407     -0.02532749864311     -1.97826049426943
  H          -1.18084888066755     -1.36295358749077     -2.30780256448879
  H          -0.70471573800436      0.37171336390784     -2.34011112990837
