20
Coordinates from ORCA-job NEB_product E -33.571973294260
  C           2.46446889998217      1.03662602412974     -0.55460542085874
  C           1.09588869340991      1.27325583514600     -1.18837860055950
  C           2.30532011789232      0.55615561351678      0.88393859136543
  H           3.01732512328748      0.30060711822979     -1.14691623378720
  C           1.10160776093344      1.13185756689675     -2.70081579353693
  C           3.27868980564683      2.35217807668337     -0.59779407020355
  C           2.50332915386748      3.53414781368992     -0.10506169982206
  C           2.61496220539596      4.02369030259355      1.11462284205558
  O           0.11896230860453      1.55833495680869     -0.55504407776302
  F           3.67437512285239      2.57334743277110     -1.90831132640964
  H           4.20595266526809      2.21812174115265     -0.02654487735748
  H           1.81976174837945      3.96251170573480     -0.82391878948449
  H           2.02249584633946      4.85963029352091      1.44145435476608
  H           3.29620799281848      3.60451214614138      1.83704205213372
  H           1.72993202728847      1.28080903350464      1.45409911761069
  H           3.27619470556566      0.42049749554278      1.35348235504034
  H           1.77306744095277     -0.39127497455542      0.90087554328755
  F          -0.12124545702089      1.41427796867349     -3.23816822786515
  H           1.35213921593281      0.10157785693425     -2.98048738084010
  H           1.82846462260319      1.82013599288482     -3.14686835777154
