17
Coordinates from ORCA-job NEB_product E -38.192102255150
  C           3.23142098085365     -1.41821365756295     -0.12815549612450
  C           1.75524677393434     -1.32380642183342      0.14321988350733
  Br          3.87066743419908      0.32514898040274     -0.72002003917408
  H           3.77632076416930     -1.65640829948118      0.79084908911638
  C           1.16575815472114     -2.52663739626968      0.92475283730340
  C           3.54055703970154     -2.51522132614349     -1.17300854972183
  C           3.07312744076732     -2.13400667249354     -2.54561868381720
  C           1.91023604842361     -2.50610016569422     -3.04389882658754
  O           1.04347058300147     -0.43243772311408     -0.20952169892651
  F           4.89990467916396     -2.71504826790606     -1.17231920083620
  H           3.09562365171917     -3.46363692705475     -0.84236009732254
  H           3.76136792264887     -1.50851523220156     -3.09535796230939
  H           1.22499560029237     -3.13423380181914     -2.49799168142630
  H           1.59728638167881     -2.19221969028353     -4.02362349596337
  F           0.76118301557996     -3.47046092211715      0.04206663166294
  F           2.08775859438104     -3.11149199354125      1.71819523071671
  H           0.30107493476439     -2.22771048288675      1.53489205990271
