20
Coordinates from ORCA-job NEB_product E -39.782002481710
  C           0.54543059141017      0.51408667682825      1.42987726812454
  C           1.38600576638907      1.02155951430301      0.27184970362415
  O           1.33223776410260     -0.20718904988246      2.33346884835752
  H          -0.29774709943106     -0.08892418015031      1.05526562345213
  I           0.25185536826077      1.22051431983604     -1.56604071163524
  C           0.00504494306185      1.73022952100009      2.20501109647685
  C          -0.88340736452110      2.62979578322916      1.40068106057029
  C          -0.66120948861904      3.92173677458887      1.24512258055840
  O           2.53105780841268      1.29357920572449      0.29184385652398
  N          -0.83064288805875      1.19006373704797      3.33214191748587
  H           0.83760266513547      2.27337085350861      2.66182082898961
  H          -1.75401191686043      2.14995813972788      0.97393662638171
  H           0.19699063333860      4.41013581376386      1.67626094902345
  H          -1.32756401612352      4.53761052888136      0.66785642766225
  C           1.67945765680645     -1.50643431127991      1.90266643234542
  H           2.21664702887357     -1.95879089206776      2.73237400989971
  H           2.32755151172884     -1.47840038755986      1.02121298091591
  H           0.78304774006260     -2.09453257926450      1.67847398759659
  O          -1.62774355250055      0.33402598360477      3.05437409208988
  O          -0.66370315146822      1.69020454816045      4.40910242155698
