20
Coordinates from ORCA-job NEB_reactant E -39.769030202660
  C           0.92822524654166      0.03238807888353      0.25235717905978
  C           0.94130859906450      1.32359942040689     -0.07000701155360
  O           1.55183724125305     -0.42562147968558      1.36154589464957
  H           0.42471672839654     -0.68721746314863     -0.37985190494361
  I          -0.17014539844213      1.95429307878352     -1.78090998641469
  C          -1.11422213964948      2.66446982843978      2.94201243127327
  C           0.09241163208817      2.38155970578859      2.46841798584409
  C           0.78999248885758      3.13831593622026      1.38805822601858
  O           1.60438700025374      2.29209572033188      0.59670894591452
  N          -1.70738432930693      1.86838290686193      3.97823762043495
  H          -1.73537164161992      3.48685149240578      2.62060367390046
  H           0.63021317106315      1.52443592384071      2.85927813366468
  H           1.47968055023852      3.86526359494959      1.83035594731464
  H           0.06937980357610      3.67570665354535      0.75386286048855
  C           1.49356241388324     -1.82124262287706      1.56422911972691
  H           2.02914526785847     -2.01269418848617      2.49158664971896
  H           1.97633991957016     -2.36118972181603      0.74440388163809
  H           0.45884527813495     -2.16196221860507      1.66569964123764
  O          -1.10818134339264      0.88883409130092      4.36479462709552
  O          -2.78474048836874      2.23563126285982      4.39221608493167
