20
Coordinates from ORCA-job NEB E -43.532430726200
  C           0.26591645279084      0.45188560592814     -0.92895461922743
  C           1.36541741428513     -0.47923685746621     -0.57275719155253
  C          -0.04494388700292      1.60392516297364     -0.33888179151785
  H          -0.42851898483807      0.04933541176648     -1.65571345808186
  C           2.77888255332168      0.07730182397030     -0.44765158034379
  C          -1.34807158825252     -0.42532745185908      1.94398498203017
  C          -1.78503015137796     -1.23119162998704      0.90194819280680
  C          -2.90326932301185     -0.94312291605458      0.18214502140167
  O           1.12018667850792     -1.64599942325457     -0.39844681801292
  Br          0.18093708567893     -0.78967117682737      2.91613448130212
  H          -1.88796480796627      0.46224611139825      2.24450432928151
  H          -1.19202253374493     -2.10202089813654      0.65476822137183
  H          -3.50064237900819     -0.07297171421946      0.39406959323484
  H          -3.22085647733846     -1.57648272512105     -0.62553154050825
  Br         -1.63537888501083      2.52442880144912     -0.79810529072277
  Br          0.90384007689711      2.42597334019027      1.06617755779337
  Br          1.80348828091338      1.16415310251816     -3.55781716207079
  F           3.28503215512786     -0.23676925989763      0.78589473503795
  H           2.83263306063665      1.16014894259051     -0.57052714160940
  H           3.41036525939252     -0.41660424996130     -1.19524052061264
