20
Coordinates from ORCA-job NEB_reactant E -38.348695388280
  C           1.97105175803053     -0.45049673994720      0.01471864627911
  C           1.53907374881315      0.42791889701175      0.94847056350699
  N           3.20387804928707     -0.38570288924358     -0.55835387382319
  H           1.29086485758606     -1.19708066257408     -0.36547840630206
  C           0.22927329909003      0.34885061133797      1.44739834645369
  C           1.85662780670584     -0.05263528531948      4.32024779426652
  C           2.68171296016793      0.75396089325809      3.67370609507074
  C           2.21730534703847      1.83347983935529      2.73882736329752
  O           2.39586557176563      1.43330364474244      1.39144228901635
  C           2.31484334153594     -1.18864435824824      5.18357847864627
  H           0.78243534154341      0.04143953544589      4.25067686156508
  H           3.75208734471388      0.61228913420760      3.73877094222971
  H           2.83279690941659      2.73009449374265      2.84756734750364
  H           1.16646500636780      2.08411932142457      2.93046707601717
  H           3.86542876672912      0.21948142188147     -0.09712589821836
  H           3.57176889527192     -1.20902419586637     -1.00155518001845
  N          -0.83276874298300      0.28121233161142      1.88494929973848
  F           1.89775634961778     -2.37758235851408      4.67080945011798
  F           3.66571685899559     -1.26872598616996      5.25677948278591
  H           1.92741653030625     -1.12535764813615      6.21460332186690
