20
Coordinates from ORCA-job NEB_product E -38.333749304370
  C           2.72456637986055      0.34394300469529      1.74637334607173
  C           1.88606587182019      1.53856214798028      1.27751082160063
  N           2.44848284849237     -0.84674829151162      0.97255684405419
  H           3.78110395138801      0.60959076916553      1.60019712434259
  C           1.84780724608249      1.61810052533648     -0.17356212149681
  C           2.48478131960781      0.11317098451023      3.25868768137444
  C           1.23223034210232     -0.67963721634815      3.50691714651003
  C           0.10641544701356     -0.14372237784379      3.93769405883493
  O           1.28789047569173      2.30339970143380      1.98875876255038
  C           3.68548731088124     -0.59000415222219      3.89069937223739
  H           2.40340970497675      1.09731560175765      3.73272679148673
  H           1.31139041601222     -1.73546411499674      3.28954356510549
  H           0.02202750263641      0.91017589723000      4.14578908476888
  H          -0.77894041074098     -0.73614093450655      4.09145364254978
  H           1.45477031779338     -1.02240745381150      0.88633463614843
  H           2.87085536304706     -0.82338187561981      0.05432047347185
  N           1.86164792923705      1.66186707490742     -1.31761071941530
  F           3.95766566600501     -1.77438549559734      3.30399525077647
  F           4.80588067843449      0.16602332084729      3.75056740653206
  H           3.54036163965836     -0.77295711540628      4.96724683249610
