20
Coordinates from ORCA-job NEB_product E -32.006571192270
  C           2.68486656689341      0.80926889857943      1.48146464565686
  C           1.50358867068998      1.55739681390275      0.86501759182029
  Br          2.97826896560933     -0.74337616092507      0.31129037157367
  H           3.59707319290692      1.40456332883310      1.38993818044652
  C           1.83954485733546      2.32277678597930     -0.38987711399539
  C           2.43210715990526      0.40131004419927      2.91779258003070
  C           1.31495222576556     -0.55670205871111      3.10500441361883
  C           0.36858246626775     -0.40168094582789      4.01332751406938
  O           0.41310008939609      1.54949963107220      1.36940240723419
  I           4.27124614475167     -0.46631492223157      3.74925048117936
  H           2.26509168683888      1.30633946381086      3.50654479456178
  H           1.32579974419484     -1.42526606329583      2.46004809123219
  H           0.34261904382800      0.45128742337847      4.67144614022975
  H          -0.42669084513936     -1.11733913131055      4.12162986146616
  C           2.27061953673657      3.74110331836459     -0.00113716719366
  H           0.94396157756600      2.37813662483878     -1.01029264475488
  H           2.63636390254873      1.83215875798971     -0.94943213815296
  H           1.48264656407942      4.23350201409959      0.56382169307075
  H           2.46925198367469      4.32177376279910     -0.89784401493040
  H           3.17470646615081      3.72566241445484      0.60450431283684
