17
Coordinates from ORCA-job NEB E -37.709794788750
  C           0.85638021333931      0.53677132690978      0.61073094952151
  C           0.73041569453789      0.69557542633501      2.00096428464823
  N           0.14068104105215      1.76283828251585     -2.29674321395230
  H           1.17574794282873      1.36471655983368      0.00218679393963
  Cl          1.08244311723946      2.39150607407830      2.48913169352672
  C           0.49669105762834     -0.77561141069445      0.00040695074790
  C          -1.02717517718190     -0.88691120143888     -0.00695282734461
  C          -1.69642380893493     -1.55108182609635      0.91327366816121
  O           0.44514436912936     -0.11294813507590      2.84288619757557
  C           0.99653242406354     -0.86874034569875     -1.34769498111996
  H           0.89791987154220     -1.59045094786962      0.61554289517356
  H          -1.52178652455360     -0.35747560693070     -0.80802276630475
  H          -1.20656625011888     -2.05648217609318      1.72843236905042
  H          -2.77186430683094     -1.59976149787943      0.89144316399078
  O           1.02736625756211      2.42591819764219     -2.67093825975267
  O          -0.97801507888369      1.50681600210027     -2.53025995717454
  N           1.35250915758084     -0.88467872163782     -2.43438696068669
