17
Coordinates from ORCA-job NEB_product E -37.805804966960
  C           1.75571287027971     -1.63462693903716     -0.43225525717751
  C           2.72574822285161     -1.94082700921171      0.69656365698501
  N           2.39082081000957     -0.77404923516324     -1.48144426980262
  H           0.90128313190924     -1.07589047229368     -0.03052873887758
  Cl          3.52354282114364     -0.49399025533362      1.27180971974434
  C           1.24729224799327     -2.93824110642017     -1.09370071950725
  C           0.06281137666281     -2.68329849252007     -1.99463423327500
  C          -1.06939591359066     -3.35274232953026     -1.89934526877868
  O           2.91351262918239     -3.00115101811315      1.18610189288512
  C           2.29476036700175     -3.57769127812304     -1.87177834850683
  H           0.96862465077258     -3.63443631382617     -0.29251596332833
  H           0.20060941131280     -1.91921926917065     -2.74692154951870
  H          -1.21984838970390     -4.12510093284379     -1.16263115613034
  H          -1.89253044769266     -3.15723400698101     -2.56337584480965
  O           3.54599097811965     -0.97865504282577     -1.72961879618488
  O           1.66860722662765      0.02441434044716     -2.01608579697301
  N           3.07545800712054     -4.10116063905369     -2.51823932674409
