17
Coordinates from ORCA-job NEB_reactant E -37.800917676780
  C           1.88027869759563     -0.62625294873904     -0.42846584570110
  C           1.40320162054407     -1.29404101796956      0.64543708404657
  N           1.35015005573503     -0.58946645485514     -1.73676902725578
  H           2.76716421663282     -0.02247116591514     -0.31584464349028
  Cl          2.15796877745875     -0.95428953850670      2.16323745360946
  C           1.19229053007680     -3.81204777858770     -2.33141102263222
  C           1.15217329960169     -3.69211801619870     -1.00607461165607
  C           0.02473497390881     -3.04081049871320     -0.27120244012052
  O           0.48548521896645     -2.22114861677463      0.80864560983384
  C           2.25195189226412     -4.46543985182408     -2.99301623155395
  H           0.41100661170194     -3.41475979635264     -2.96676279978215
  H           1.95313374885833     -4.08201035790357     -0.39042078742759
  H          -0.58524553413729     -3.79831581671331      0.23277703404036
  H          -0.60328671980395     -2.45737247343720     -0.95434697363784
  O           2.11342170637419     -0.27776049089264     -2.62596330794638
  O           0.16513782372092     -0.83110699426984     -1.90301168859971
  N           3.11103308050171     -4.99958818234690     -3.53080780172665
