21
Coordinates from ORCA-job NEB_reactant E -37.629069841320
  C           1.53499384829077     -0.06675655010563     -0.15489999667645
  C           1.66474109304439      0.37643010027470      1.09278853613499
  C           1.08583004480843     -1.43856800675065     -0.52198057853647
  H           1.76596805964772      0.60426883438422     -0.96992218332176
  C           2.13714616656346      1.80268409132732      1.34145206954850
  C           3.69181852904319      0.04556760785714      4.51923599820948
  C           3.56224094856525     -0.33038491350448      3.25332952150548
  C           2.41333303119260     -1.14909657182801      2.76081571805364
  O           1.34951292732593     -0.36178771863808      2.20074438148162
  O           4.67973014861555      0.81185814256251      5.01946018194911
  H           2.99909243796100     -0.26259611268174      5.28928480216451
  H           4.27153970722561      0.00923529367198      2.50912604010885
  H           1.93269087903128     -1.67957076949249      3.58450063554796
  H           2.75625852087887     -1.86978371318503      2.00618646620803
  H           1.89699555824259     -1.98458088949964     -1.00360569658044
  H           0.26167011746244     -1.37934123426521     -1.23085653768694
  H           0.75803925750416     -1.98282085235294      0.35915932993760
  F           1.99330319652056      2.17040710900967      2.62832098946348
  F           3.47061402418995      1.93047608386361      1.05864856349572
  H           1.61031264428905      2.53929076879891      0.71455209554796
  H           5.24516885959719      1.12876930055383      4.30255966344510
