16
Coordinates from ORCA-job R E -17.822964365980
  C          -1.54422557301836      0.08450671144417     -3.02981682442968
  C          -0.03322222195358     -2.16701175289865     -1.69123833328084
  C          -1.35376154317850     -2.03401118609063     -1.75057405807203
  C          -2.08017022382450     -0.95155409389500     -2.39396642755715
  C          -0.60981148597107      1.37133573466572     -0.12196960265701
  C           0.01888418228281      0.37080811846245      0.45798696619915
  H          -1.97661069226643     -2.78549607976482     -1.28107446792603
  H          -3.15882052961750     -1.02344570890154     -2.32769146268558
  H          -2.15665633273722      0.84846189779569     -3.47716375786829
  H           0.42652955465719     -3.00097028382092     -1.18922777477551
  H          -0.48033384899523      0.21035606216822     -3.12941346355806
  H           0.63696052963664     -1.45435620905691     -2.13919362428332
  H          -1.66811750418486      1.52946772944423      0.00257206798795
  H          -0.49418878226424     -0.33932866663837      1.08482405418473
  H          -0.09740696411115      2.08211670007112     -0.74926987290976
  H           1.07729143554600      0.21127102701523      0.33349658163143
