16
Coordinates from ORCA-job TS E -17.812259209110
  C          -0.59604704687306      0.72629312600231     -1.33198825526471
  C           0.83012943335234     -1.40351387318361     -0.04095616832582
  C          -0.49458005649408     -1.47516612080690     -0.31210546216218
  C          -1.19830142685174     -0.42461144167402     -0.94927289293507
  C           0.10947713378752      1.44113463462910      0.75318820146401
  C           0.78180268554617      0.43970889255397      1.36107479097852
  H          -1.08547324920365     -2.25845121456547      0.14423523160421
  H          -2.27905137259868     -0.47645681959787     -0.93610164843318
  H          -1.18257598398742      1.55294982573527     -1.69901810140588
  H           1.30700099902949     -2.16452799887005      0.55529078715995
  H           0.45090048416388      0.76041771553341     -1.56993076661101
  H           1.49175592387324     -0.79349457202290     -0.62746730046252
  H          -0.92241191873261      1.63403158725414      0.98869416798869
  H           0.29763185546748     -0.18410415355713      2.09167993893297
  H           0.63259076635753      2.22496654146799      0.23316742930656
  H           1.85715177316358      0.40082387110176      1.33951004816547
