24
Coordinates from ORCA-job P E -43.141259283840
  C          -1.26539261936613      0.35445689276064     -2.31819317387091
  C          -0.14406833150606     -1.78535331533522     -0.92730640299583
  C          -1.44568609462488     -1.97295806173652     -1.64583159559174
  C          -1.96081212315559     -0.97347055777719     -2.34067240576709
  C          -0.93825208515574      0.67524623770897     -0.84840285692868
  C          -0.06067456033148     -0.41740090248923     -0.21209631047563
  H          -1.90675925390956     -2.94626826705298     -1.60493350184476
  H          -2.88634361691852     -1.04363247172751     -2.88838104457140
  C          -2.10394053472765      1.46586345849787     -2.93959232376229
  H           0.02504619381118     -2.58565516179196     -0.20734155568665
  H          -0.32547294267277      0.29560004681787     -2.88140542333767
  H           0.66110424058467     -1.83875454812393     -1.66855652794551
  H          -1.88049897576151      0.73679921078053     -0.30193697595743
  H          -0.34275187119666     -0.53632693411175      0.83809517643147
  H          -0.43543214358532      1.63938162926935     -0.76447950493651
  C           1.39094618428773      0.03930093361063     -0.19900177389583
  O          -3.23210112982693      1.29131421242114     -3.31905751531227
  C          -1.41524646119148      2.80352413902463     -3.03281451299418
  H          -0.33892436638969      2.70067187047012     -3.13236139760785
  H          -1.63166679375699      3.36735429917908     -2.12601761994300
  H          -1.81880908807447      3.36407124459554     -3.87240527336687
  F           2.21639362667594     -0.88733109723719      0.31028896097836
  F           1.85661003670925      0.32944259288842     -1.42544274141604
  F           1.57045271008269      1.14890454935869      0.53822630079833
