24
Coordinates from ORCA-job R E -43.051513930930
  C          -1.13390651506349      0.01324112938477     -2.75775789460468
  C          -0.13674513967485     -2.84012616373181     -2.49483278906479
  C          -1.32040372961732     -2.38001233941239     -2.09729080211156
  C          -1.70165467245233     -0.98616884301765     -2.06503849407438
  C          -1.32538028613918      1.45551787336880      0.70884594377271
  C          -0.45249912290739      0.47575220978311      0.56604335163203
  H          -2.07011782103480     -3.07411631176918     -1.73840582487108
  H          -2.54630759885173     -0.73034471536620     -1.43572679066730
  C          -1.60753374505347      1.39568430647082     -2.61515469257864
  H           0.09018911287553     -3.89224887985076     -2.48522256360633
  H          -0.31780970003544     -0.16160319144490     -3.44186400811339
  H           0.65224391700649     -2.18126444783571     -2.81308441005546
  H          -2.29912131326383      1.27884304224537      1.12764122601366
  H          -0.63727102670896     -0.54485194028863      0.86336835380058
  H          -1.10715148729416      2.46325259415703      0.39943691751269
  C           0.91076740578219      0.69118048163063     -0.00907657180269
  O          -2.45518230243260      1.71681070538410     -1.80536434125686
  C          -0.93900495954491      2.38982501665166     -3.52825257697226
  H           0.10831105829162      2.47685811175197     -3.24332303905359
  H          -1.41486653052287      3.36257582343934     -3.44030474462995
  H          -0.98492199517923      2.04528773422931     -4.55888089254973
  F           1.29953002188124     -0.32753676034156     -0.79821919687192
  F           1.01358228476346      1.80088076875239     -0.75568280470562
  F           1.85760414517602      0.79404379580948      0.94571664485860
