24
Coordinates from ORCA-job TS E -43.037763390320
  C          -0.72525349279444      0.18548999507956     -0.94245930496421
  C           0.64353642945367     -2.16382910595847      0.00095348832927
  C          -0.68381559867422     -2.16300639560815     -0.27932803662664
  C          -1.35087445975280     -1.01701815316818     -0.75440959371200
  C          -0.17225180590708      0.53075785587295      1.23645037627089
  C           0.61563863246876     -0.49117788858225      1.65874806556214
  H          -1.29472272502239     -2.99583529985876      0.04031484232102
  H          -2.43220280433042     -1.02655442643941     -0.79154755852141
  C          -1.52576585489764      1.38456215193496     -1.27209588348083
  H           1.10017015867641     -3.00720142145939      0.49217705754984
  H           0.33076075965318      0.23973881725193     -1.15487278958659
  H           1.32160145045957     -1.49569569220245     -0.49821001136332
  H          -1.21386195197348      0.55912583233851      1.49687835842270
  H           0.25338657186828     -1.28291127559561      2.29106914970250
  H           0.27185793106486      1.45372141080439      0.90624462624135
  C           2.09965938000063     -0.31109938731599      1.66489347879373
  O          -2.71381556475343      1.45213848690528     -1.05065728881467
  C          -0.74285911160140      2.50992738676550     -1.89968026092221
  H           0.10124772682095      2.78102101346013     -1.26933730206136
  H          -1.38202258286002      3.37535745489128     -2.05070279757670
  H          -0.35031537139132      2.17948643363626     -2.85999153210442
  F           2.78095182455221     -1.45606545201659      1.81219140384825
  F           2.56541800174147      0.27338635649136      0.54432081076617
  F           2.50353245719865      0.48568130277313      2.67905070192649
