20
Coordinates from ORCA-job NEB_reactant E -41.360047789200
  C           1.78759247093228      0.12270673202087      0.06892293326798
  C           1.60062882923796      1.44674250114685      0.01432318238127
  C           1.43875239376865     -0.87048809904252      1.12832416376573
  H           2.23318205975435     -0.32396694406489     -0.80508629156946
  C           2.00009479992086      2.20686966839196     -1.23545975247038
  C           2.37950226185226      3.00405004576853      4.03340212569022
  C           2.21432351920187      2.21666499141026      2.98682357553965
  C           0.90974678914720      2.09507704158307      2.25789015006336
  O           1.07338110346924      2.34452236574353      0.86694355977774
  Br          4.02096146811285      3.14091125377238      4.95363760943617
  H           1.60082007502512      3.61668154121752      4.45957638787927
  H           3.03146328194510      1.62162890697881      2.60540318347696
  H           0.21048047769839      2.86655187986601      2.59070485616222
  H           0.45611464976448      1.12024931511445      2.44686141093504
  F           2.11833310523723     -0.67863618406002      2.29660787702105
  F           0.11858507626647     -0.83062285061489      1.47504694488720
  H           1.65212741660342     -1.89717506405856      0.79965781908425
  F           2.34658465759069      1.38334683241314     -2.26515367848498
  H           2.86398408539005      2.84752220964533     -1.02390864382439
  H           1.16084147908151      2.82516385676818     -1.57041741301893
