20
Coordinates from ORCA-job NEB E -54.476514391470
  C           0.65496443462399     -0.56725065848043      0.92333152178933
  C          -0.50767964656476      0.05986208049090      1.43139252944810
  Cl          2.19011853902708      0.15104230565508      1.35141392904081
  H           0.70877818184293     -1.65142022074171      0.98410662945807
  C          -1.76778669923282     -0.79356934168009      1.52869410513080
  C           0.45735858508060     -0.15342148507044     -0.89713115314884
  C           0.33459355739214      1.24649579318546     -0.90029536007002
  C          -0.79220711993899      1.81700105550205     -0.24253295852656
  O          -0.65994305379188      1.33793604741352      1.29322169652515
  C           1.64299550634773     -0.75001592090719     -1.63136584441811
  H          -0.43073583607488     -0.74351347414683     -1.11262081023310
  H           1.23348812457203      1.83807854007138     -0.99890952750093
  H          -1.76676024599797      1.41742405510874     -0.51160414999911
  H          -0.79515859208287      2.89596774664223     -0.14630405189592
  F          -2.68838637510993     -0.24378413009963      2.31457825288603
  F          -2.35748359610923     -0.96972276829873      0.31715974771902
  F          -1.51106167571521     -2.02182327767049      1.99132188201658
  F           1.97432954310330     -1.96402983058440     -1.17481137974146
  F           1.33859137699277     -0.90751489209868     -2.93085310616652
  F           2.74198499163594      0.00225837570927     -1.58879195231331
