20
Coordinates from ORCA-job NEB_reactant E -54.513926180030
  C           2.54622011103640     -1.04253204997288     -1.09981044027164
  C           1.38027499499640     -0.76945060132926     -1.68624018336924
  Cl          4.01977184083768     -0.17730703292427     -1.25648562236205
  H           2.62693585592836     -1.89812510066795     -0.44864659742217
  C           0.19788736916730     -1.69381871040009     -1.43166795069692
  C           2.81320118933846     -0.61488218608610     -4.53080925772319
  C           2.89568668081013      0.58448421518158     -3.97807926815913
  C           1.87781118204847      1.15131480447130     -3.03897513386597
  O           0.96288655071509      0.19847582585954     -2.53209211068058
  C           3.86188372238021     -1.15400344037185     -5.45030947103397
  H           1.99562921789650     -1.29841762346781     -4.35625061840103
  H           3.72872645159302      1.23823010209879     -4.19523758340727
  H           1.24625866042224      1.86400030229190     -3.58145540523327
  H           2.37420732543905      1.68620331236573     -2.22278173908901
  F          -0.87382239728106     -1.02277488679882     -1.00520872756989
  F          -0.16052537495985     -2.32947378137443     -2.55532135975524
  F           0.45425283025552     -2.63754688422708     -0.52140977131372
  F           4.84216295413863     -0.27899326653820     -5.71221358185854
  F           4.45372510061112     -2.24838922763944     -4.93789738737032
  F           3.34982573462634     -1.52379377047066     -6.63500779041687
