22
Coordinates from ORCA-job NEB E -58.365368668640
  C           0.59511064110188      0.74496357107657      0.39272623517513
  C          -0.66238175577649      0.81858091698936      1.01590398063913
  N           0.74098140413406      1.68917918889782     -0.71751762372218
  H           1.48703165494331      0.74077534480924      1.01286671750459
  C          -0.83311714904866      0.61172271821286      2.47441434767716
  C           0.48420228561623     -0.91023312569906     -0.55208263285512
  C          -0.63045819029748     -0.67283255785231     -1.35582921881967
  C          -1.89284616699209     -0.35922970824811     -0.69774427638741
  O          -1.76805074621330      0.74817327913670      0.30178451810161
  C           1.80387293636688     -1.25451596198757     -1.19766403045831
  H           0.34628620290379     -1.50905286935616      0.34638326710208
  H          -0.52393262561162     -0.48581176535977     -2.41061888140455
  H          -2.26857516385415     -1.18929688065051     -0.09081931341158
  H          -2.65916049848268     -0.00631858694001     -1.38337286235935
  O           1.70718376474290      2.40665207406212     -0.66394504855041
  O          -0.13634098331408      1.71395501639735     -1.54359773935011
  Br         -2.55853480081093      1.26093435584802      3.05689448870049
  Br         -0.82265660510105     -1.41132368444201      2.81597277970451
  Br          0.56694431251028      1.38262661855412      3.55629795910389
  Cl          3.12790296733399     -1.16025927645390     -0.00871496924816
  Cl          1.70018644048749     -2.94792394943365     -1.77208079501676
  Cl          2.19635207536169     -0.21076471756111     -2.57925690212501
