22
Coordinates from ORCA-job NEB_reactant E -58.394034504750
  C           2.52301720939714     -1.02261113522464      0.13758969811629
  C           1.49160085967401     -1.78440720297905      0.55102989499681
  N           2.75445786340611     -0.49580312609905     -1.16311826839223
  H           3.31387598822662     -0.77042946356477      0.83016203143505
  C           1.43469099840928     -2.14274511256024      2.02290079295417
  C           2.51505457416331     -3.90834702443182     -1.45669020919031
  C           1.66998017599033     -3.13218151138232     -2.11838540761057
  C           0.44780176814438     -2.51603583471743     -1.50940760972258
  O           0.50511731201939     -2.38829647095930     -0.09381587270622
  C           3.77996228022015     -4.47114294054842     -1.99363053824431
  H           2.34921104438755     -4.18505277530886     -0.42415691380142
  H           1.83635889258372     -2.88264708213168     -3.15543587661132
  H          -0.42674061851099     -3.15363335235956     -1.67584155295629
  H           0.26873423070242     -1.53584594168863     -1.96822550315235
  O           3.90830864736361     -0.38332550512161     -1.50371237274526
  O           1.79240489972965     -0.15600487225352     -1.82617162919255
  Br         -0.26290700894955     -2.94306840413911      2.47237270119483
  Br          2.85507429195868     -3.45318663662026      2.41046480060815
  Br          1.70001555428503     -0.58917446704914      3.15871259891051
  Cl          5.13673050481951     -3.75714529412288     -1.05861051798540
  Cl          3.79348950034710     -6.23820028084043     -1.74412017820589
  Cl          4.04176103163255     -4.13651556589725     -3.70741006769910
