22
Coordinates from ORCA-job NEB_product E -58.391953477390
  C           2.72952034314573     -1.97311869393744     -0.24689013356173
  C           1.48189923880559     -1.59639608732284      0.52375429126515
  N           3.11559592129287     -0.74714667844932     -1.03897922186582
  H           3.57952460186880     -2.19967464168129      0.40514945987316
  C           1.57451495537438     -1.78927450430110      2.03359506878496
  C           2.41000966675328     -3.20173907301153     -1.14024009287802
  C           1.37952934879559     -2.90443245069566     -2.19500123011088
  C           0.10963413978093     -3.23964022638314     -2.05976786950639
  O           0.48904852999338     -1.16631467418486      0.02140629306449
  C           3.69187352553823     -3.77630845538695     -1.75651251727535
  H           2.01856577752361     -3.98080415639714     -0.47401840600989
  H           1.72614463700208     -2.37874389852468     -3.07040511579487
  H          -0.26129010194507     -3.76487640236268     -1.19446220227270
  H          -0.61321059939617     -2.99806456022612     -2.81754539769644
  O           4.13793560904769     -0.22350371466614     -0.68877028448196
  O           2.36238780696288     -0.37202460771481     -1.88786304785620
  Br         -0.12977694317193     -1.39817836172759      2.84561153410427
  Br          2.08388704073609     -3.62744488214426      2.43786953021154
  Br          2.94513933929187     -0.55905925038585      2.70657792606916
  Cl          4.83246596896116     -4.27723025812372     -0.47563170002873
  Cl          3.25792609127921     -5.21479300907489     -2.70821826207880
  Cl          4.50927510235979     -2.60683141329798     -2.81915862195495
