23
Coordinates from ORCA-job NEB E -55.840096373550
  C          -0.05874095560751      0.09819393718956     -0.89554137146201
  C           0.75659807322601      1.14807576101124     -0.38642753544298
  C           0.45041916875047     -0.93557789619888     -1.87449263562223
  H          -1.01557736569426      0.49241365020444     -1.23759267993104
  C           2.26286216983370      1.06332614806272     -0.14740286048176
  C          -0.72289645035155     -0.64949845924284      0.70535443586019
  C          -1.24460087548021      0.47220300809058      1.38265218556071
  C          -0.39142452648172      1.53454784646442      1.75924217707167
  O           0.15293521100891      2.06330818340870      0.29611707905959
  C          -1.74937416752294     -1.70743726883464      0.34931139299698
  H           0.19541100647216     -1.08482184297642      1.09037110323039
  H          -2.29026610981662      0.69755279120552      1.22088878124444
  H           0.53899267083195      1.28849716617573      2.26017711768140
  H          -0.86118548290253      2.42381530531676      2.15900977218402
  Br         -1.03101876162139     -1.59439682302029     -2.98131726857172
  Br          1.73561171694216     -0.15169899548908     -3.14102915777689
  Br          1.29176627822231     -2.51636310134021     -1.08866836177798
  F           2.95567878862957      1.78577034162677     -1.03715018349048
  F           2.57313080150876      1.55222847511192      1.06213019258243
  F           2.76623083958785     -0.17981829296512     -0.18230888800599
  F          -2.82565283572261     -1.13756442129592     -0.27584192301275
  H          -2.12094070124242     -2.17114202600177      1.27049662604452
  H          -1.36795849257010     -2.49161348650320     -0.30797799794050
