23
Coordinates from ORCA-job NEB_reactant E -55.876257984960
  C           1.36593181954193     -0.53964695348037      0.11695959876467
  C           1.99544044999820     -1.33224030554812      0.99583486222034
  C           1.90788404408001      0.17075345395686     -1.06228883415001
  H           0.30032847414456     -0.41173533867131      0.24707866617116
  C           3.48186702398690     -1.67641505052378      0.99887428775439
  C          -0.86295358942620     -2.06544513622901      4.61114297509434
  C          -0.27001700247121     -2.56665904923886      3.54128862880252
  C           0.04490109573705     -1.77212220564516      2.31353648137205
  O           1.43385705976852     -1.93882628501266      2.04564684810810
  C          -1.19992833718496     -2.85500093179710      5.83341560360979
  H          -1.16054468017175     -1.02713662233675      4.66326285799190
  H           0.03114031552498     -3.60313850862489      3.50957783878342
  H          -0.18317272628798     -0.70970085384219      2.46444576870161
  H          -0.53669296677505     -2.15280136852913      1.46172385891128
  Br          0.59051193008092      1.49147640958067     -1.65639111852965
  Br          3.56555256767380      1.15867973641695     -0.73808861610166
  Br          2.18578638292597     -1.06447492032149     -2.59193581720877
  F           4.19382371876136     -0.76617695134739      1.67634147330945
  F           3.69374593599122     -2.85247889029528      1.58562236431437
  F           4.00803669882863     -1.76018840373923     -0.22550286232961
  F          -0.86304772906236     -4.17491366276928      5.70380987633872
  H          -2.27798156712182     -2.81880904857264      6.03526064910539
  H          -0.65676891854273     -2.46979911342982      6.70568460896621
