20
Coordinates from ORCA-job NEB_product E -32.667203954760
  C           1.42449275777884     -0.39579465234900      2.26642726207751
  C           1.01160249321119      0.62080337892679      1.24567108161603
  C           1.33502345995864     -1.78844823692514      1.64357316306698
  H           2.45889119974584     -0.19294737787691      2.56503339944446
  I           1.64487206602772      2.64219074823695      1.76901125272922
  C           0.52408064022122     -0.20493081688049      3.51408249192740
  C          -0.93563016643436     -0.27246357491310      3.16226703985332
  C          -1.74885319004757      0.76460244833145      3.21667457516919
  O           0.40917259807880      0.45847278724628      0.24660767006548
  C           0.87275436874889     -1.23381921041158      4.59324630298476
  H           0.73474386201438      0.78310978614238      3.93939140073312
  H          -1.30378056960771     -1.24402106221294      2.86229550176590
  H          -1.41024995910070      1.74037978057175      3.52526954011128
  H          -2.79034417633274      0.68243705688891      2.95916878878707
  H           1.68203734527296     -2.54136035337390      2.34512964539982
  H           1.96041433159863     -1.83431793446266      0.75436664888480
  H           0.31550269489877     -2.01621033697649      1.34627383363613
  F           0.33255244763747     -0.84117314441053      5.78938835493445
  H           1.95555415943055     -1.30301799004422      4.74602160090596
  H           0.45476363689916     -2.22089129550757      4.37250044590710
