20
Coordinates from ORCA-job NEB_reactant E -32.644760216970
  C           1.85213342531449      0.10410901030842      0.06257897608708
  C           1.55762081281968      0.60737255048326      1.25038024767826
  C           1.73031008593252     -1.34674523793217     -0.26907457436325
  H           2.21510094959095      0.75433913827591     -0.71761031673635
  I           1.78090773251929      2.73235360164715      1.55501687072417
  C          -0.37025301009032     -0.20783865395587      5.38042679393126
  C          -0.17948514296755     -0.66460034142266      4.15486042952727
  C          -0.02149045721665      0.21373591114226      2.95735671110142
  O           1.21617246127344     -0.10451176599188      2.32895337022206
  C          -0.54281271292032     -1.07048347771118      6.58796807322190
  H          -0.42723987884492      0.85199597577477      5.58745788014947
  H          -0.11144458224518     -1.72594235545645      3.96539438996529
  H          -0.03000593616988      1.27257942163687      3.24975511834434
  H          -0.84427612899643      0.03880463925957      2.24727874850027
  H           1.32695040504178     -1.90429433909496      0.57158737547335
  H           2.70994539180226     -1.75129708668456     -0.52090295398524
  H           1.08284819518673     -1.47661143540055     -1.13569257928032
  F          -0.51698178869143     -2.40550871205960      6.28009324024363
  H          -1.50788483761269     -0.87491418074329      7.07258941070830
  H           0.26478501627421     -0.89424266207505      7.30988278848710
