20
Coordinates from ORCA-job NEB E -37.104370948010
  C           0.74677008744430     -0.70664702677861     -0.00416115276834
  C          -0.31250323332276     -0.53638984033612     -0.91946058863455
  C           0.56669849402884     -1.69506511976615      1.13887608110669
  H           1.73950832251506     -0.83779396046675     -0.42906831458103
  C          -0.02691350575986     -0.09928937091959     -2.32639233967687
  C           0.76041129440021      1.03181870171473      0.74545088422799
  C          -0.54263565579485      1.23368056791361      1.21386071900203
  C          -1.60011731984421      1.13331593982172      0.25971099903537
  O          -1.50146511863670     -0.31345972703052     -0.42390925927937
  Br          2.19006799358093      1.13281071501443      2.02678671934959
  H           1.07535807537989      1.54644842604365     -0.15775627765987
  H          -0.76233919352951      1.03925990445498      2.25150045886424
  H          -1.51379036975487      1.77039813061955     -0.61996847955704
  H          -2.60155044469292      1.14194904608506      0.67322774292487
  F           1.76139010517386     -1.96972519551175      1.71351072845557
  F          -0.24609989790521     -1.29097972562749      2.13389030069958
  H           0.16322443704580     -2.64943428068219      0.75985879933035
  H           0.09790240241380      0.98793401137643     -2.36214882792860
  H          -0.86937808196735     -0.35379691788700     -2.96454135276303
  H           0.87546160922553     -0.56503427803798     -2.70926684014759
