20
Coordinates from ORCA-job NEB_reactant E -37.141924039860
  C           1.93861051016495      0.20970346389130      0.07310918749567
  C           1.65983435275555      1.32185473131403     -0.62455163549743
  C           1.66930503694056     -0.16131329650297      1.49314590510345
  H           2.41703516902294     -0.58294574551254     -0.47806272661396
  C           2.00952366697588      1.38606940496172     -2.08669778835727
  C           2.17848190354816      4.63819608518924      2.24847201006821
  C           2.13064708549180      3.46852314134227      1.63942419421702
  C           0.86899323774671      2.90288972803468      1.05802377150692
  O           1.06815797673582      2.47930187743679     -0.28052103600102
  Br          3.76950493259132      5.33428887387598      2.98994554285146
  H           1.32664773636596      5.28419713807763      2.39029626707958
  H           3.01860889397262      2.86302668900056      1.52921388160897
  H           0.09894614483750      3.67672539590783      0.99112895323416
  H           0.48508684603319      2.10027932584143      1.69090271736130
  F           2.30406005869110      0.63489359544557      2.40435477494252
  F           0.34329070766995     -0.08559704357451      1.82278650881731
  H           1.98630301855973     -1.19300402900365      1.70186305922783
  H           2.83081837264694      2.08595079039062     -2.23111962969364
  H           1.15346401966006      1.76386038524437     -2.64042201855075
  H           2.29448032958927      0.41449948863966     -2.47349193880032
