17
Coordinates from ORCA-job NEB E -42.110243967990
  C           0.53262125595189     -1.00792215110906     -0.63905812356530
  C          -0.85361953111217     -0.46185214546425     -0.56997783593384
  F           0.52111579727782     -2.32409718295350     -0.17943389283737
  H           0.86785455623828     -1.09105080925459     -1.68750699238190
  C          -1.96298617843724     -1.17971367214994     -1.29367472644708
  C           1.48438502737693     -0.19973437505026      0.19201780516073
  C           1.08636956422758      0.86380434999467      0.86705304428365
  C          -0.31070818803381      1.37472660084105      0.85002940285533
  O          -1.23527909053332      0.61360807364964      0.08703985466527
  I           3.63062514003813      2.97548165796327      2.98403346936547
  H           2.49762455192461     -0.55879008685566      0.22620497546635
  H           1.76604424936593      1.43471451211944      1.47980760896392
  H          -0.34408622420089      2.39773494529379      0.44987687085797
  H          -0.71475082493472      1.41549570840176      1.87197244355889
  F          -2.26958388185764     -2.36063611612056     -0.74447478354347
  F          -3.08305096614973     -0.45933033712650     -1.32683076059134
  F          -1.61257525714162     -1.43243897217931     -2.56707835987728
