20
Coordinates from ORCA-job NEB_reactant E -42.025698684730
  C           1.84238545458081      0.22233349049253     -0.10253438479780
  C           1.41926318088927      1.34628417540069     -0.69370283224015
  C           1.58878703078259     -0.26703851474977      1.27394753097318
  H           2.42153382377361     -0.45642511900607     -0.70666454806715
  F           1.75373372701411      1.47596411656799     -1.98812830608399
  C           1.73695563010672      4.74716863175479      1.93328777767939
  C           1.70781964632210      3.47712178094045      1.56400297011405
  C           0.49348041057919      2.80311166219891      1.00193518405059
  O           0.70784939313058      2.39429996869306     -0.35610019080320
  C           2.92923377625454      5.43293259913212      2.50253896146175
  H           0.84627055765782      5.35593763395245      1.84224866631839
  H           2.59147508180619      2.86058030631780      1.64857479273895
  H          -0.33893798877449      3.50647510686986      0.93145318221263
  H           0.18592873129887      1.95620735246982      1.61935462513994
  F           2.15664589212575      0.47965836531512      2.24684638225351
  F           0.27846305997839     -0.33356252745176      1.59852628447109
  F           2.07295878655183     -1.50314578947583      1.43191236346400
  H           3.77846725636505      4.75817341936397      2.56449825948328
  H           2.70229442287175      5.80873589173735      3.49944741884144
  H           3.19779212668532      6.28778744947652      1.88305586279011
