20
Coordinates from ORCA-job NEB_product E -42.043370326630
  C           2.44867018984145      1.94151614235604      0.64015157009733
  C           1.61555840662806      1.62961687839839     -0.58505425922246
  C           2.45697237276422      0.71787295441454      1.56467234816593
  H           3.48648062403364      2.06783037179741      0.30133146564870
  F           2.04933313723982      0.50041779510744     -1.19162628569659
  C           1.95169687504954      3.24576419535135      1.31618794950031
  C           0.78667929300419      2.98173756948466      2.23281861664903
  C          -0.47144332836072      3.17854364108856      1.88967047993057
  O           0.72331297283800      2.23913314272617     -1.04850238888211
  C           3.08526420670969      3.95018642651757      2.06074845318713
  H           1.60875027951210      3.89410035168069      0.50283786061972
  H           1.04036254297782      2.61832370629710      3.21917543369380
  H          -0.74285988346391      3.53774015044070      0.91096840212152
  H          -1.28014212764504      2.97904242995267      2.57067401834461
  F           2.96766231208576      0.99011579574177      2.77086220684980
  F           1.23639139899472      0.21133288373421      1.76831075231021
  F           3.20823337394817     -0.27192597016491      1.06536829926578
  H           3.90115117633275      4.19084947774347      1.38251477266888
  H           3.47082424137620      3.33596307104379      2.86967161176638
  H           2.71090193613354      4.87763898628838      2.48621869298145
