23
Coordinates from ORCA-job NEB E -36.508363121770
  C           0.55432502484868      0.79821445565101      0.66408834603608
  C          -0.67973263570613      0.11636023844389      0.66726495199145
  C           0.51173348495785      2.31073129278531      0.57983539538831
  H           1.26873555251107      0.47034256888152      1.41419377411880
  C          -0.87268644240587     -1.13154114041603      1.49204573422191
  C           1.30518852012093      0.31682194217989     -1.01573148693102
  C           0.28878024513161     -0.18537262314226     -1.84701036810129
  C          -0.95408560592477      0.51848681451232     -1.78496777435519
  O          -1.52246449256345      0.32005762611303     -0.30409473668714
  Cl          2.63708641664308     -0.77256688074081     -0.69288658364583
  H           1.70286291380088      1.30162986148513     -1.23195241785258
  H           0.22684369417348     -1.26019662977924     -1.95508093342317
  H          -1.76252841389918      0.10687215459162     -2.37933951474938
  H          -0.89289708813563      1.59994416832441     -1.89246513365974
  F           1.76155707078544      2.84340204645644      0.38368956912871
  H           0.15624759873084      2.71596891541642      1.53514777567126
  H          -0.12387216089354      2.67831496968749     -0.23007645490635
  C          -0.41826878892648     -2.38975366442827      0.74723403504977
  H          -1.93619939119226     -1.22189296558719      1.72115157397393
  H          -0.31973403403183     -1.03351340967830      2.42623748514061
  H          -0.98635839995920     -2.50682746995757     -0.17215624244519
  H          -0.58401961145218     -3.26517139875230      1.36955629009577
  H           0.63948654338667     -2.33031087204652      0.50531671594027
