23
Coordinates from ORCA-job NEB_product E -36.562337396150
  C           2.46828972974058     -1.07021859327020     -1.30323088244377
  C           1.19817441153579     -1.89757006738813     -1.09022292970473
  C           2.11348718954008      0.38821147501071     -0.99225490705894
  H           3.24458620533184     -1.39505338187154     -0.60514318063112
  C           1.22007871751844     -2.80711793524288      0.11338462825897
  C           3.03517512255410     -1.16143444740013     -2.72938313881051
  C           2.11699775115691     -0.68496337354237     -3.80259770007596
  C           2.45747064340501      0.24320288339319     -4.67829942693770
  O           0.23799821947174     -1.78979977718407     -1.80663192239074
  Cl          3.44335925167836     -2.88512594401867     -3.07109928522988
  H           3.98484096907635     -0.61964537579146     -2.76639270883872
  H           1.14833466930678     -1.16194247617494     -3.83371676215346
  H           1.78160855591691      0.56410899237866     -5.45162666975892
  H           3.42287132133636      0.72279944446075     -4.65381934722800
  F           3.24279779932331      1.16510637818223     -1.01451302316866
  H           1.68361238046507      0.48522465858765      0.01022476187289
  H           1.42560790668972      0.79196022275540     -1.74081053016466
  C           2.08906850582185     -4.04149336725760     -0.13885810919136
  H           0.19610812024519     -3.12114972174267      0.32215808172349
  H           1.60806618060294     -2.25566468669247      0.97248713544405
  H           1.71972305308810     -4.59073267547941     -1.00079496901661
  H           2.05698780724115     -4.69502809896076      0.72910577249997
  H           3.12285548895344     -3.76547413275127     -0.32716488699562
