42
Coordinates from ORCA-job P E -46.666649738330
  C          -1.80016082895871      0.14421174611767     -1.85899543315478
  C          -0.39020377943790     -1.86330291175787     -0.65270478888631
  C          -1.86451866056662     -2.04137283200842     -0.83521981107251
  C          -2.55171385390128     -1.09382064446120     -1.45158655448589
  C          -1.02142366858331      0.60768922962040     -0.61347982982084
  C          -0.02245106196333     -0.45803927430539     -0.11943055026378
  H          -2.31921286940153     -2.95710579237864     -0.48654673007008
  H          -3.61319398236936     -1.16088872191946     -1.63344770532208
  N          -2.58588064726690      1.22161968936342     -2.44207275078374
  H           0.00027067185968     -2.62577498854624      0.02047963965288
  H          -1.04682377528072     -0.12827189964362     -2.60442731185292
  H           0.08326882463936     -2.00616181079328     -1.62871484169336
  H          -1.73558531344028      0.80401640147865      0.18638780683979
  H          -0.11948151377257     -0.50683375912778      0.97121588709421
  H          -0.52105766764622      1.54433971154011     -0.84906425604990
  C           1.46164722218054     -0.09179491093831     -0.39332326707262
  C          -3.21592030313618      0.93954635295628     -3.73871389296940
  C          -3.21471777994817      2.23406024680696     -4.56082779566677
  C          -2.52782870611033     -0.14808682099803     -4.56234198891643
  C          -3.53619014130620      1.80508094872106     -1.51509247686164
  H          -4.26373277014167      0.62150700381943     -3.58469817551718
  H          -2.18949689141595      2.54673051468689     -4.74030601420991
  H          -3.72782571961704      3.03815947676094     -4.04163453324763
  H          -3.70843136478189      2.07453498881042     -5.51634489781529
  H          -1.49674048134989      0.12333160174532     -4.77582139851144
  H          -3.05383180295233     -0.25120647345677     -5.50924323409983
  H          -2.54870068467569     -1.11126803350383     -4.05902619601737
  H          -3.00122883744108      2.33668721347438     -0.73022020870009
  H          -4.19822674646095      1.06108118389490     -1.04729954092095
  H          -4.15858408666794      2.52767338335629     -2.03728373271253
  C           1.83799198909567      1.14071910121317      0.43933463391932
  C           2.37518590668324     -1.24039107702593      0.05431791814284
  C           1.73284009067701      0.20474184206313     -1.87008516715284
  H           1.68764907469120      0.94498065798610      1.49893983635688
  H           1.24395316450853      2.00834453601913      0.16667995005047
  H           2.88556185191318      1.39082433415345      0.28526595968339
  H           2.15621363560619     -1.52820897422154      1.08037718863616
  H           3.41578712654764     -0.92590549219207      0.00608111883862
  H           2.26167405126383     -2.11299082606229     -0.58260444681692
  H           1.13925031372464      1.04405935339076     -2.22106470134226
  H           1.51277228143145     -0.65866494015375     -2.49338790170502
  H           2.78355773377192      0.45311066551557     -2.00673980550221
