42
Coordinates from ORCA-job R E -46.598577039050
  C          -1.75034087553930     -0.61018563743387     -2.71678677094229
  C          -0.28652393165626     -3.15886475843012     -1.97932321199094
  C          -1.56350899754481     -3.04205977107589     -2.34430896149255
  C          -2.27789306295460     -1.84964390450177     -2.72890003284001
  C          -0.89484753750485      1.35779058990488      0.37565736393021
  C          -0.02275897713914      0.37711531091239      0.23880272342663
  H          -2.16352643548058     -3.94473883827772     -2.36798402110723
  H          -3.30176949179826     -2.01182046270360     -3.03225699789258
  N          -2.35946865411321      0.57913219442946     -2.98552060039135
  H           0.13350562329674     -4.11387836168564     -1.71491259699586
  H          -0.72366485252184     -0.49151653951536     -2.40448550314850
  H           0.38973496831139     -2.32241662386621     -1.93902658299616
  H          -1.94965742443073      1.18447577731773      0.24207547955028
  H          -0.38423274998225     -0.61219846500169     -0.01301385326701
  H          -0.61077797684310      2.36564273813130      0.62601210564194
  C           1.47674060402542      0.46671348796040      0.36948247261436
  C          -3.72527037594474      0.61748335099162     -3.47578262565070
  C          -4.42879738878799      1.92003905009933     -3.09758496098200
  C          -3.78836181237302      0.38454029614456     -4.99010544872590
  C          -1.54438730260862      1.75430467826185     -3.16362823540783
  H          -4.25387212496585     -0.19950758751708     -2.97377537962149
  H          -4.03546363919442      2.76265514995461     -3.66029310950808
  H          -4.31720494952226      2.11836732276118     -2.03440265583966
  H          -5.48927555067417      1.83075113834718     -3.31955389210483
  H          -3.31648452744994      1.20559080688028     -5.52511891293072
  H          -4.82236103215543      0.31162361265022     -5.31661047821700
  H          -3.27409474146427     -0.53862814297243     -5.24603406185664
  H          -0.53147528235302      1.54608942463029     -2.82748213557058
  H          -1.93071554361630      2.58557702466485     -2.57097819318910
  H          -1.50198995092622      2.06334792704316     -4.21379332833259
  C           1.92786613002686      1.74009454949489      1.08627909336803
  C           1.96448390389154     -0.75746670245497      1.15285178991112
  C           2.08608843709666      0.44050806942745     -1.04024148522344
  H           1.45437684860019      1.81618898249099      2.06232089144017
  H           1.67600146745663      2.62400365726580      0.50541586431955
  H           3.00664958374929      1.72451209043126      1.22679094725795
  H           1.54788102702199     -0.75298628801455      2.15790055762063
  H           3.04987810786506     -0.75434451711870      1.22874643307130
  H           1.65593138491050     -1.67633955668340      0.65874651099906
  H           1.75720018535590      1.30612118513595     -1.61280407966935
  H           1.79165402712636     -0.45978727150246     -1.57577680383717
  H           3.17240289081068      0.46025501342384     -0.98162731341965
