42
Coordinates from ORCA-job TS E -46.578873916580
  C          -0.51810533822314     -0.60086913823423     -1.15198827843521
  C           1.02323161424875     -2.41384740765370      0.46020581938920
  C          -0.24859955472730     -2.68957735675871      0.04651373965768
  C          -1.00940054757399     -1.81958307513212     -0.74597118869283
  C          -0.20867671154180      0.16846976791694      1.02657971314705
  C           0.73166580946425     -0.58000469549227      1.67383616484924
  H          -0.77116405156078     -3.52414817284631      0.49642450624410
  H          -2.05266185765849     -2.06176379717373     -0.88819145240104
  N          -1.21063339564938      0.35717857311992     -1.83876425132933
  H           1.50995729279588     -3.10598539670263      1.12760678772741
  H           0.55038513713226     -0.48029775300792     -1.22559192288962
  H           1.68134625945201     -1.82482270198017     -0.14918225572416
  H          -1.25521599772063      0.00056579309314      1.20671093358543
  H           0.39000005502830     -1.25849344050110      2.44276342723056
  H           0.04733996507525      1.09550942066468      0.54679912241132
  C           2.13856061489802     -0.04905293513632      1.91645724039146
  C          -2.64911973427578      0.50285703595896     -1.70648313573521
  C          -3.05157649718211      1.85479243345169     -1.10963737522537
  C          -3.33865929045644      0.27175149840723     -3.05430748174343
  C          -0.47373449914618      1.47810472536923     -2.36582471682299
  H          -2.98231418338147     -0.27347325687656     -1.01315587237957
  H          -2.84469249337351      2.67166424659116     -1.79617966014762
  H          -2.51746617453102      2.03132865765687     -0.17901670397826
  H          -4.11767792748192      1.85199355368195     -0.89694615871961
  H          -3.07447209900390      1.05008714318686     -3.76621623252644
  H          -4.41817363771347      0.27665821008023     -2.92811716359593
  H          -3.03811487147833     -0.68879096456300     -3.46504346388415
  H           0.49718412780320      1.13943746124406     -2.72492972794883
  H          -0.30880222930268      2.26516255461003     -1.61867079477182
  H          -1.01287670475924      1.91046066652926     -3.20746428614166
  C           2.00018494914659      1.02331589399112      3.01383279360544
  C           3.07923092710387     -1.13585796317513      2.44527779411194
  C           2.77319508054540      0.60119073943939      0.68437843186675
  H           1.57345266820731      0.58985038762893      3.91562709794825
  H           1.34845164983221      1.82835429473399      2.68312404397807
  H           2.97323453357106      1.44376974594537      3.26134014430281
  H           2.61265081557945     -1.68284927681707      3.26149540460902
  H           3.99632984099811     -0.68391384621737      2.81963510897587
  H           3.34827891280956     -1.84050951648689      1.66444706718054
  H           2.16976457143704      1.42689461991209      0.31743680261746
  H           2.90195405377906     -0.11786459023962     -0.12090307438307
  H           3.75573891783399      0.99230786178176      0.94209305364656
