17
Coordinates from ORCA-job NEB_reactant E -34.618254681500
  C           1.68795699869887      0.24688651687256      0.05590442558008
  C           1.58898363189732      1.57103509983239      0.06412023329685
  H           2.15264805518386     -0.30897227019217      0.84806998564068
  H           1.29653906684146     -0.32315957427563     -0.76442352617458
  C           0.92664038610578      2.31932278310679     -1.07486636763210
  C           2.82244200494408      4.31005091080442      2.80284632012554
  C           3.06237141157935      3.03821979466185      3.05612938817733
  C           2.66750565497621      1.92121307749696      2.14452942465258
  O           2.02043386201792      2.44054032983279      1.00418819393464
  F           3.19940735066392      5.27120509628530      3.65756888807085
  H           2.32455371078962      4.70076246614332      1.92963820494842
  H           3.57001407669483      2.74329706307558      3.96215302458051
  H           1.99530643469877      1.23136651050248      2.67756803542238
  H           3.56372719101730      1.35681041017982      1.84432861805654
  F          -0.11742775835638      3.05756805001574     -0.62871371823901
  F           1.78946221088313      3.19131403255577     -1.64900926914519
  H           0.55433571136395      1.64403970310201     -1.85953186129551
