21
Coordinates from ORCA-job NEB E -49.726172273610
  C          -0.54218027278578     -0.98377789083507      0.22820537819473
  C           0.48771456513652     -1.42648162346034      1.08511762168198
  C          -0.88288755101251     -1.79033282745207     -1.01346477653543
  H          -1.46907149298927     -0.75119554749355      0.75338845197312
  O           0.27598683637609     -1.71161122342378      2.36500204310911
  C           0.18230619823417      1.65713147443477      0.23187255754088
  C           0.37315356073794      0.45556392162488     -0.45521604171503
  C           1.75801918223118     -0.19212241426186     -0.33432454499536
  O           1.73799522813822     -1.16310967111313      0.71942334715944
  C          -0.91909077411550      2.55464867234881     -0.05778719677554
  H           0.66267057026133      1.81686325865468      1.18477858992540
  H          -0.01600959616378      0.47520079603394     -1.46795921652474
  H           2.52006435577997      0.54090413212075     -0.05989519773799
  H           2.04646214641983     -0.68122255323694     -1.26609275730767
  F          -1.67847518646267     -1.09205466350732     -1.84794634994754
  F           0.20815829223433     -2.14242441606714     -1.73504255943200
  H          -1.41568725996854     -2.72155975268597     -0.75434207261465
  H           1.10352149613293     -1.67721587815525      2.86947905557347
  Cl         -0.63612740039369      4.16804647528184      0.60913124408819
  Cl         -1.28848168628651      2.70131342500473     -1.78480535958885
  Cl         -2.50804121150430      1.96343630618802      0.73047778392850
