21
Coordinates from ORCA-job NEB_product E -49.783517619760
  C           2.20167413317626      2.10541717368322     -0.41758256892427
  C           0.97048473232738      2.03677201855960     -1.34213063868641
  C           1.96939810690357      1.13738889176812      0.75748729312087
  H           3.08694747482677      1.73806324584111     -0.94831249950229
  O           1.22744190123698      2.06883687627738     -2.64770463339347
  C           2.49258829367554      3.52416028155482      0.12891892133163
  C           3.76178861395841      3.48737070115882      0.94235506077025
  C           3.79919750688048      3.71472476068691      2.24029711896233
  O          -0.13671931780616      1.89209040234178     -0.91863467728371
  C           2.61386676923033      4.57990969267766     -0.97370142229132
  H           1.65692624106966      3.82795624271840      0.76848293909736
  H           4.65676421628923      3.24004543446997      0.38911981447935
  H           2.91105349471252      3.94740820521769      2.80340388284908
  H           4.72051670314068      3.66089216919035      2.79248621096544
  F           3.15584259252580      0.68029009680267      1.22683184835700
  F           1.35452208385818      1.72569363280039      1.79985747096604
  H           1.36673651091112      0.26497148301650      0.46247492598707
  H           2.14524216868555      2.29336361018772     -2.87025866305024
  Cl          3.25873247299165      6.09022432406759     -0.28619755418187
  Cl          3.73239689591310      4.05527871810471     -2.26631334853860
  Cl          1.02739840549294      4.94594203887458     -1.70757948103423
