21
Coordinates from ORCA-job NEB_reactant E -49.766879086290
  C           1.82738760221697      0.09185475101764      0.06484069419425
  C           2.65643786833623      1.14085220075317     -0.00065542966275
  C           0.81236749567874     -0.06730307444213      1.13641714145584
  H           1.87494464934168     -0.69745245969341     -0.66634244127036
  O           3.58696787114388      1.29257261054258     -0.96986955667002
  C           2.84309473484911      5.48263124355962     -0.11693036808528
  C           2.97574296850598      4.17894121625276     -0.30090391299726
  C           3.47275101043740      3.24131449331838      0.75641248720274
  O           2.61873022231912      2.11619526902241      0.92032065915648
  C           2.38341810460914      6.45725501325533     -1.13967538951648
  H           3.08749973828386      5.94383605995442      0.83011417740832
  H           2.72808118254604      3.72055973894914     -1.24724732906390
  H           3.48832224240992      3.72284169180533      1.73578159997916
  H           4.48504504635817      2.90797573363482      0.49509629475478
  F          -0.43186284603212     -0.25163552488831      0.61354106745643
  F           1.04780984396582     -1.18472110930852      1.88300790361332
  H           0.77097337312528      0.79113483966739      1.82016215036418
  H           3.57136982278938      0.53861178991308     -1.57019656714999
  Cl          0.95964109252549      7.34091812707963     -0.51325055779783
  Cl          3.68725355449946      7.64852787517547     -1.43868765944060
  Cl          1.94362442209048      5.72158951443119     -2.68423496393104
