23
Coordinates from ORCA-job NEB E -53.607685491640
  C           0.32936473731604      0.05886303850807      0.92859444472099
  C          -1.02710808762637      0.42919258540639      0.97218336951891
  C           1.34463627770024      1.18124569311305      0.97145515315585
  H           0.63731168300518     -0.72531197631769      1.61672183371622
  C          -2.00692125382405     -0.57552936600371      1.55867477410051
  C           0.46879514019589     -0.70527296692736     -0.83726462523501
  C          -0.06500497727169      0.32691073609188     -1.61453016838997
  C          -1.41541070243521      0.75264723286019     -1.39491255160521
  O          -1.49706818480933      1.27805688714095      0.10059555304381
  C           1.88724741963936     -1.14628855705217     -1.07531331554174
  H          -0.19200799961617     -1.53961865332924     -0.61827453683554
  H           0.61191736072564      1.01342447414686     -2.10137792496605
  H          -2.16721831501825     -0.03447625414217     -1.39789256235246
  H          -1.73079416338127      1.62228262962901     -1.96001912075633
  F           2.60446860808146      0.71943817333966      0.96640988257113
  F           1.26444930813559      2.07620263685625     -0.01172901465463
  F           1.21482764344744      1.86589545879097      2.12004409013375
  F          -3.19044435762290     -0.03474440532823      1.83320919087619
  F          -2.25059720521111     -1.60846419774529      0.70858374098879
  F          -1.54136583174347     -1.13724696851979      2.68236441683896
  H           2.28737463884269     -1.68024939920331     -0.21773755538567
  H           2.53795995557661     -0.30772591534509     -1.30566267426636
  H           1.89558830589368     -1.82923088596924     -1.92412239967611
