21
Coordinates from ORCA-job NEB_product E -47.951609994980
  C           2.98732246247723      1.27857894695600      0.53308274866083
  C           1.55091175110452      1.49659174837279      0.06003043191252
  N           3.19550923859442     -0.06243894740924      1.02113241752725
  H           3.69895202174639      1.48682470524952     -0.27223402304248
  C           1.37765249489951      2.34144297823478     -1.21235552829167
  C           3.26264154495466      2.28877713586079      1.68384642353208
  C           2.39553339043709      2.05636037532124      2.87772493950625
  C           1.33975768315356      2.79842102747048      3.15438586441444
  O           0.60778855446649      0.98481026490553      0.58848148179745
  N           4.71886324417271      2.14150200645783      2.02405692295975
  H           3.14190359082817      3.30507644218523      1.29482879219404
  H           2.68479196997672      1.22890373409380      3.50807524531805
  H           1.04700399997908      3.63156899037648      2.53577351359702
  H           0.71926981119696      2.59799544990358      4.00913572717715
  H           2.43789656187072     -0.33830898965718      1.63771731168272
  H           3.24724569675978     -0.72790506115424      0.25990916910576
  Cl          1.92693364626892      1.26638100189956     -2.53231961203860
  Cl         -0.31573529580034      2.77843547335722     -1.46274087955774
  Cl          2.37609008273365      3.80307789742370     -1.19757913854275
  O           5.48798561861484      2.31205722975734      1.11416975073265
  O           5.01028193156492      1.89454759039478      3.16047844135528
