21
Coordinates from ORCA-job NEB_reactant E -47.956991932750
  C           1.09209173017062     -0.01087753450888     -0.14611259821248
  C           1.48999156258548      1.25555648527349      0.07936599841757
  N           0.59685066099552     -0.83231689804623      0.82091133127384
  H           1.20861388002392     -0.43878830199616     -1.12961801080384
  C           2.08985045334292      2.08780761621340     -1.01149276247398
  C           3.98798710691115      3.51550585425792      2.63818307297250
  C           3.60008046230282      2.45269722470529      1.94437918855579
  C           2.38066079127531      1.64836450799280      2.26389279311351
  O           1.32785997804682      1.84298004939700      1.31880888366677
  N           5.15856192736475      4.25951519784597      2.27143655646440
  H           3.47810091584845      3.91521591692588      3.50149911741169
  H           4.18153025403234      2.15059509487821      1.08160287473863
  H           1.95150423491437      1.96421068206264      3.21779241072812
  H           2.65135487130894      0.58478110337160      2.30871557629224
  H           0.28199298610177     -0.37404750238497      1.66300607944616
  H           0.04673662173029     -1.61976114457804      0.52327450915499
  Cl          3.73567151951924      1.48636152415535     -1.45949287300423
  Cl          1.10407428476138      2.00429439413311     -2.49670605785234
  Cl          2.23100095701233      3.78141626263190     -0.53109636068541
  O           5.82734394454692      3.86288622049385      1.34342332264591
  O           5.39844085720465      5.24680324717585      2.93322694815017
