20
Coordinates from ORCA-job NEB E -40.659517622010
  C          -0.09430796576469     -1.10471241686572      0.07557639993926
  C          -1.14969946863172     -0.35936560649632     -0.50084298962670
  F          -0.39589626869664     -1.78855472498655      1.19741716460084
  H           0.61768234875356     -1.66542849322362     -0.52283674292232
  O          -1.07930894331229      0.09748710728964     -1.77786916078450
  C           0.86791481570238      0.40635461704088      0.84310032142873
  C          -0.08347018662836      0.99097214172623      1.68634312981283
  C          -1.22859210986664      1.54609247831137      1.07481174158992
  O          -1.95933702183273      0.25553308004417      0.26882382705936
  N           2.01982947733296     -0.25850042364357      1.43751340104297
  H           1.14648569432596      0.89032302338403     -0.08882072844688
  H          -0.13470648647719      0.62954443515623      2.70274106587904
  H          -1.07582120588225      2.19210677354288      0.21589392144829
  H          -2.02884141942461      1.87252619816256      1.72418747418351
  C          -0.24010576822638     -0.55279629647335     -2.71150869346022
  H          -0.52260635315159     -0.15290357933695     -3.68371993909802
  H          -0.39885782247518     -1.63378858520897     -2.70306422041085
  H           0.81492189621862     -0.33525914310723     -2.52482545866847
  O           2.02660429716247     -0.45679221145050      2.62376319864124
  O           2.89811249087432     -0.57283837386520      0.66331628779198
