20
Coordinates from ORCA-job NEB_reactant E -40.691443160950
  C           0.99605986860795      0.17555528191391     -0.58098995969763
  C           1.60837139556891      1.29258994040108     -0.18397296571778
  F          -0.03081428844602     -0.33408433018657      0.13594602215843
  H           1.22106758182099     -0.40228270223524     -1.45744644500259
  O           2.64749685753497      1.89148188511032     -0.82178000225057
  C           4.34247827525580      3.72241417959666      1.31665759900353
  C           3.37019410362188      2.84705176717891      1.54345923433175
  C           1.91981715049698      3.10057529417146      1.30230535016666
  O           1.21426329563392      1.93085022786834      0.94630676781911
  N           5.71194821508269      3.39199714576887      1.57262280060844
  H           4.20513421720096      4.71810535382310      0.92443462425387
  H           3.62535277662920      1.86802967545917      1.93307824937748
  H           1.78488944911311      3.88308708202179      0.54556674629681
  H           1.44488711016525      3.42159134553842      2.23625945809618
  C           3.19308915224836      1.25110174504769     -1.95417683822784
  H           4.03005990018755      1.87397417259216     -2.26405212528031
  H           2.46092682350578      1.18945443869726     -2.76313942382832
  H           3.55146941047355      0.24937764487286     -1.70521783724061
  O           5.96863098302390      2.29288437595432      2.01366752173815
  O           6.53127772227426      4.24894547640547      1.31827122339523
