19
Coordinates from ORCA-job NEB E -40.109590281680
  C           0.14803026292183     -0.95607296612107     -0.93144913723071
  C          -1.06988286790399     -0.29747149071314     -1.21979404291870
  Cl          0.01517606602965     -2.53563923731796     -0.19584158592034
  H           0.92407476135520     -0.93245747571418     -1.68828051713094
  N          -1.06850061689027      0.69624889793505     -2.17411678217527
  C           0.70981108420080      0.22429696770305      0.52494773736190
  C          -0.34456542395015      0.11618110261940      1.44025870852740
  C          -1.61940693536555      0.56351068150927      0.99743642903125
  O          -2.01788498019528     -0.29335023395904     -0.34357271883711
  C           2.09513219124883     -0.11940357858146      0.96992747180189
  H           0.72942836372072      1.12736320651138     -0.08717790110926
  H          -0.30374563468228     -0.65116820609249      2.19858608086351
  H          -1.65246416632598      1.56732249828677      0.57986591724547
  H          -2.45421848814045      0.35493026298416      1.65392709859786
  H          -1.95709717497280      1.14253296555721     -2.33887446475992
  H          -0.48020957120371      0.58258468032384     -2.98218025342564
  Br          2.74933034724980      1.40037037389171      2.05867272201363
  Br          2.25742172340896     -1.70590233362789      2.06151796757867
  Br          3.33957105949468     -0.28387611519462     -0.52385272951370
