19
Coordinates from ORCA-job NEB_product E -40.169409907370
  C           3.21144322941365      1.47419489730089      1.25205918178522
  C           1.89417103747262      2.20387499571768      0.90945414516310
  Cl          3.23754158384665     -0.15807263451827      0.51567939509875
  H           4.02336010507987      2.03743853466136      0.77664103970476
  N           1.41850721073698      1.95175183792782     -0.31648284232470
  C           3.38958137119956      1.43533737730436      2.77564041006523
  C           2.65881575807503      0.27083659032129      3.39122106121071
  C           1.48326160969572      0.39574893008452      3.97548928826626
  O           1.38994854437204      2.98003461859241      1.68583899163379
  C           4.84238010317582      1.44866780620383      3.21825644575378
  H           2.92723186890137      2.36549037335664      3.14151269623734
  H           3.14778151057277     -0.69126919185992      3.31494823392712
  H           0.98419935708528      1.34798186292664      4.04571216210902
  H           0.97307110360167     -0.45307627787347      4.39563275647370
  H           0.56206897408909      2.39722629302027     -0.60153415988460
  H           1.83270011719487      1.25274231200635     -0.90987865207955
  Br          4.91701870002859      1.45067617599238      5.17329609233818
  Br          5.85975327857066     -0.08417466656531      2.58919816640553
  Br          5.75836453688775      3.06639016540052      2.59671558811638
