19
Coordinates from ORCA-job NEB_reactant E -40.137224287370
  C           2.28817613204311      0.06301974159781      0.59632898452722
  C           1.64764325685762      1.23760448558012      0.64489209846811
  Cl          2.49673904848552     -1.06604013879819      1.89118186042847
  H           2.73350845535442     -0.26834050719925     -0.32503072284430
  N           1.56520289911239      2.04268494260359     -0.48224593408227
  C           3.82502932075444      1.18473862476143      3.83588962637447
  C           3.00477511106217      1.90201549637670      3.08585202622365
  C           1.53117241285014      1.65775877531840      3.00615141531435
  O           1.03710058679072      1.85710026904238      1.69584702501622
  C           5.28714489139447      1.35974121087441      3.93915756181420
  H           3.44977808768246      0.36929862776664      4.44274357096873
  H           3.36192420258647      2.70903356764491      2.45931008012565
  H           1.00304830032484      2.40898515098815      3.60558610463390
  H           1.27375953508041      0.66276644465154      3.38341900079580
  H           0.85061239857689      2.75076167726576     -0.40216660206627
  H           1.56850706893521      1.56368670735827     -1.36814811761584
  Br          5.78348764140217      1.67140632824047      5.82403665933490
  Br          6.18055365457038     -0.29642636461912      3.34908469569437
  Br          6.00923699613617      2.82280496054600      2.89351066688865
