19
Coordinates from ORCA-job P E -35.854954471940
  C          -1.19988234379460      0.49179840641015     -2.42791469586226
  C          -0.45640707039826     -1.60013371896487     -0.42156577626453
  C          -1.37450805186824     -1.84495415501854     -1.57486201198378
  C          -1.70072275635566     -0.92584731294275     -2.46715386370811
  C          -0.56620266811619      0.81821558238231     -1.07167496236058
  C           0.33649631294640     -0.31490036554010     -0.60776461293068
  H          -1.77500166206341     -2.84386162669244     -1.66177392898190
  H          -2.34650767929075     -1.17956378685760     -3.29590682823432
  C          -2.34174614580561      1.44498626269275     -2.74604521150788
  H          -1.04523052454798     -1.52479382104029      0.49887531592209
  H          -0.44158369902682      0.62160132785905     -3.21452674559499
  H           0.22156460627111     -2.44791355853270     -0.30458727184347
  H          -1.34698474664072      0.94851784502976     -0.31662370969277
  H           0.85146617590589     -0.03514519126358      0.31389629462311
  H           0.00973293534292      1.74312104616416     -1.13757037670711
  Cl          1.63297136971764     -0.58174287872666     -1.82407864099870
  Br         -3.84729955748208      1.16116907129679     -1.53019954194449
  Br         -1.79599782513203      3.31776720675735     -2.60576976302569
  Br         -2.99440666966161      1.18406966698721     -4.57191366890394
