19
Coordinates from ORCA-job R E -35.758736357200
  C          -1.40466015145994     -0.17581322879592     -2.87743286121174
  C          -0.09249029475944     -2.71509937932412     -1.93495586940689
  C          -1.29599691589145     -2.27631276316274     -1.58061651212121
  C          -1.87867599834637     -0.99816028893378     -1.94134714454026
  C          -0.77652539242740      1.94958818314918      0.31006180759872
  C          -0.19451719611180      0.77533581738218      0.16986092941631
  H          -1.91913093858791     -2.88919554768380     -0.94283900815740
  H          -2.76536042165854     -0.72228302825812     -1.38482702859472
  C          -1.99055841193190      1.12027666819264     -3.25591709862189
  H           0.26437634628047     -3.67655575340707     -1.60901936407392
  H          -0.53925113372391     -0.44084652771652     -3.47029333367918
  H           0.58448704538892     -2.13636534357860     -2.53933999793933
  H          -1.66443606540452      2.04710023264617      0.90950067808350
  H          -0.54444705038471     -0.13228856020073      0.63665093312373
  H          -0.39834615476675      2.84253798686135     -0.15688781938400
  Cl          1.21659376232505      0.53317256760188     -0.78680986649200
  Br         -3.37156839285776      1.77522516411637     -2.06803799571388
  Br         -0.59108684009287      2.49761064304912     -3.34773805522911
  Br         -2.79065579558915      0.97599315806251     -5.07591239305671
