19
Coordinates from ORCA-job TS E -35.740565976120
  C          -0.38283528545295      0.33281038083715     -0.92144436148901
  C           0.94533074399355     -1.85843188446471      0.33574383254749
  C          -0.40194811266159     -1.83167982666514      0.17157594565563
  C          -1.05860642247530     -0.77094840495006     -0.47830586370290
  C           0.43535090117048      1.02190567714933      1.07305476315502
  C           1.25316929499704      0.06620085537195      1.57906433016934
  H          -1.02192612411541     -2.54180310763851      0.69972594944663
  H          -2.13959703877403     -0.74649235864625     -0.43511285438007
  C          -1.11002029092002      1.46733251646279     -1.53424182375485
  H           1.40209107048496     -2.62083879111616      0.94479306508308
  H           0.64940465523893      0.25736523311339     -1.22967803906444
  H           1.60856078495866     -1.36396285998831     -0.34985253468559
  H          -0.56056490346139      1.11787497255208      1.46899321273681
  H           0.97253719677100     -0.58276763664228      2.39045934444696
  H           0.85542397841770      1.87594255260559      0.57146862050425
  Cl          2.96858157256865      0.17895376314954      1.34026403629945
  Br         -2.62894731082509      2.06345081486023     -0.46104329825579
  Br          0.04668825037489      3.00665017812839     -1.84365499324253
  Br         -1.83269296029010      0.92843792588098     -3.32180933146946
