21
Coordinates from ORCA-job NEB E -52.343738033510
  C           0.43478574097772     -0.80088424000206     -0.37560921727184
  C          -0.24386205128904     -1.81635016616489      0.32588749942435
  C           0.97185581540015      2.36107933383504      1.70669885573402
  H           1.25161597274910     -0.26244036379797      0.07355625208076
  C           0.26180202037086     -2.06450297521907      1.76731481139574
  C          -0.04327184030233     -0.40752582582387     -1.72415830235008
  C          -0.81208601384431      0.89113680345220     -1.50171097707419
  C          -2.07081533361861      0.89800640491067     -1.10693399724042
  O          -1.19375379119782     -2.46021949550667     -0.09774866996169
  C           1.05192668055963     -0.19025614278974     -2.64076479980059
  H          -0.71431459794645     -1.18333437618506     -2.11092963164308
  H          -0.24600566811263      1.79892430841873     -1.65488493735004
  H          -2.61676234701584     -0.01470084128334     -0.93152171507395
  H          -2.60579534532953      1.81983814228873     -0.95424130493978
  Br         -0.41352919946071      2.75098236262441      2.89346331741253
  Br          2.47880563259157      1.48768987093839      2.37792971587768
  Br          1.24097373246634      3.55535652071754      0.29527877167333
  Cl          2.03462810456841     -2.17813204583543      1.81834948363115
  Cl         -0.25020758577154     -0.65918190069248      2.73781364627515
  Cl         -0.44559440525363     -3.52726072421853      2.44719357196423
  N           1.92960447945865      0.00177535033338     -3.34498237276325
