21
Coordinates from ORCA-job NEB_reactant E -52.455431898900
  C           1.90397808895893     -0.06946614539562      0.38394362868602
  C           1.33160196521225     -0.77507512448482     -0.60939902714755
  C           2.30754139182004      1.32841559956762      0.14989746467291
  H           2.09608695910434     -0.49733768255496      1.35145453375160
  C           0.92083330735003     -2.21272565958273     -0.43531044718620
  C           0.92661042093585     -0.08522691675541     -5.28688257299280
  C           0.76919214454641      0.32277726259751     -4.03070754590520
  C           0.44628397350713     -0.59773563186104     -2.89732994498044
  O           1.19948568468932     -0.14016501627281     -1.77980413826859
  C           1.19537848917724      0.80650351124462     -6.34539513023750
  H           0.84512812922581     -1.12752203084813     -5.56911762164225
  H           0.86137255766672      1.36669812978537     -3.76631527103058
  H           0.68370085293390     -1.63421678479029     -3.14968339629562
  H          -0.62503136130527     -0.51776139035811     -2.66412551682179
  Br          0.78628526600659      2.42933759829221     -0.42964402758615
  Br          3.03951759435114      2.12834108935680      1.75480100456627
  Br          3.66698349163114      1.45346679176955     -1.27405750859804
  Cl          1.85798591234968     -3.23751315091279     -1.57112395775245
  Cl          1.23247917766424     -2.82078835841503      1.20019926811746
  Cl         -0.82813355311700     -2.41665789813220     -0.74727576025364
  N           1.41471950729149      1.51235180775027     -7.22082403309545
