73
Coordinates from ORCA-job A3R E -104.415425539670
  Ru          1.96275900597261      3.75557028781567      0.19015149049703
  H           3.30279972509887      4.44822055142466      0.20241519669442
  N           2.67780458424644      2.60678649515460      1.79547531728986
  C           2.72397111573772      3.08704027533095      3.04726349378934
  C           3.09294630691802      1.31776295072377      1.55208132703658
  C           3.02441499368629      2.30036264802735      4.13815952535515
  C           3.37631524846434      0.46440939821138      2.65829060720254
  C           3.32687606691723      0.94631544768729      3.93029034247256
  H           3.04198846765223      2.72407242763320      5.12933754367382
  H           3.64377671037350     -0.56036366539599      2.45189872204412
  H           3.54223527905984      0.30729230673675      4.77395461634589
  P           1.36006909158454      5.17419204395855      1.89943884345158
  C           1.77918963969657      7.01794377621659      1.80698157807247
  C          -0.34690945142790      4.92891527656141      2.70355960699546
  P           2.99015282527843      2.10163543083364     -1.00659469699285
  C           2.42312836685361      1.15028695143541     -2.50625511971389
  C           4.69692254064895      2.54197190337375     -1.63415422006408
  C           2.49524511101873      4.56406407898607      3.21815436138618
  H           3.45529285715242      5.06188310796149      3.03624452863643
  H           2.15962490085316      4.81167432947902      4.22804579022264
  C           3.20793748534888      0.87541748460033      0.23758191205743
  H           3.61559975458887     -0.09957404654730      0.01262610508618
  H           1.25025924121523      0.19837924680410      0.12706123169440
  C           1.45875631741944      4.80324848982035     -1.24566533966516
  O           1.24070788889105      5.51179574567138     -2.12576890465845
  H           0.36502638299041      2.23010124814309      0.06223210700105
  C           2.01750341367591      7.68747489017947      3.16099162863990
  C           3.06714506068019      7.12121995689501      0.98522857952688
  C           0.67176575227101      7.73716474685284      1.03713011054644
  H           2.83880558560118      7.21850240051411      3.69708219677744
  H           2.28734038224666      8.72936461253437      2.99123081419666
  H           1.13620750892277      7.67564992091929      3.79230365499446
  H           2.91569248985270      6.72806603386749     -0.01973793491806
  H           3.36985629672644      8.16424241945769      0.90618202126710
  H           3.88371505343464      6.56805693879630      1.44641357417158
  H           0.43090680574659      7.18579428932674      0.12819194764305
  H          -0.22806970428231      7.85384559823477      1.63615989673605
  H           1.00935094684441      8.73131139559491      0.74783332251713
  C          -0.33523464553741      3.48501609365075      3.21488515447337
  C          -0.71393509954099      5.85265243703824      3.85966350555573
  C          -1.38732087876330      5.04122176077814      1.58776892321723
  H           0.23358897077142      3.38976763513903      4.13719538136369
  H          -1.35139928916997      3.14485399164282      3.41168336028406
  H           0.10759576067336      2.82162761551786      2.46921194196484
  H          -0.88041797092124      6.87281368989148      3.52525695823863
  H          -1.64106145039437      5.49881077944414      4.31130575298178
  H           0.05219233225664      5.84896190540446      4.63220344227232
  H          -1.48894100534547      6.06303196506623      1.23353750174801
  H          -1.09464324214676      4.41537193877346      0.74185565981088
  H          -2.36311494875650      4.70825512909413      1.94137570078368
  F           4.64726394275924      3.72211448629173     -2.32344199109138
  H           5.35864768916781      2.69579804467142     -0.77106400306815
  H           5.11022074240028      1.77819866117248     -2.30625183199546
  F           2.72136196385955      1.85586408607010     -3.63972310110443
  H           2.96847876880038      0.19722889095414     -2.55485865621257
  H           1.34473402608814      0.96574754175864     -2.50357754711193
  C          -0.31130064753216      1.35488610425846     -0.22398944386481
  O           0.44121308069365      0.18281877863088     -0.41955086079258
  C          -1.01576960056692      1.69762997499238     -1.51770442935240
  C          -1.14811297876640      3.00656711115370     -1.95153258695858
  C          -1.80306088783380      3.29399991926526     -3.13533475113692
  C          -2.33474671648036      2.26813407114342     -3.89708920820737
  C          -2.20770033795545      0.95699483822313     -3.46961064951191
  C          -1.55438071511195      0.67151758018535     -2.28512664222908
  C          -1.35085978716728      1.13299931838137      0.88146401564205
  H          -0.71993430118193      3.81197115421411     -1.36470209299428
  H          -1.88649318343385      4.31841032247360     -3.46517069656294
  H          -2.84023647860382      2.48923463460349     -4.82519856182162
  H          -2.61531080300982      0.15201699219211     -4.06325671700536
  H          -1.43618022749452     -0.34830287509132     -1.95210912762599
  H          -0.86659671459085      0.83935303973222      1.81104745998746
  H          -2.01205098881024      0.32630683109311      0.57216194036547
  H          -1.94224442631473      2.03012815836897      1.04196042194922
