73
Coordinates from ORCA-job A3S E -104.419093882400
  Ru          1.82866357828953      3.59571422024218      0.07534252646318
  H           3.18784996374571      4.23247213247671     -0.07601258483142
  N           2.61276380628978      2.56590238266308      1.73061451259279
  C           2.74542637040555      3.15667483990479      2.92716646434359
  C           2.93346872295193      1.23104367817299      1.59422532820207
  C           3.02332364762180      2.45466060684331      4.07956643892633
  C           3.18589389989139      0.46454651840090      2.77363645510370
  C           3.21042650982151      1.06534503904020      3.99351448678542
  H           3.11076431658412      2.96543615697591      5.02474228259524
  H           3.36940569371644     -0.59321863570566      2.65965689929872
  H           3.39861084018094      0.49222460004960      4.88972679099329
  P           1.46540587341967      5.23124495913987      1.66331963691998
  C           2.02959186886396      7.00860861316341      1.32181553003023
  C          -0.18197051392650      5.26682872658067      2.62277268912628
  P           2.75110243140943      1.78900185449893     -1.01369694230341
  C           2.29106089566224      0.69564310279218     -2.45310565236283
  C           4.47062472061162      2.21108015949277     -1.63141810432894
  C           2.65038486456137      4.65862940084402      2.95418768464163
  H           3.62965225495686      5.04713714639655      2.64859993802763
  H           2.41948350716423      5.03762587108922      3.95226879284787
  C           2.99878399344494      0.67542493868963      0.32743523903509
  H           3.28365046115362     -0.35475381218388      0.17617172275013
  H           0.58178851796136      0.17815751468803      0.22164335359071
  C           1.17506417476584      4.50625156458345     -1.38920123272665
  O           0.78033458112908      5.09761684015668     -2.29634981060523
  H           0.32943429972127      2.59694554177235      0.29639613805544
  C           2.44517944732473      7.79449735327003      2.56663171352866
  C           3.24206009314282      6.91808233330677      0.39180408641354
  C           0.91724044956422      7.73588265454052      0.56600965954207
  H           3.27352672642876      7.31268767420961      3.08029238768415
  H           2.77993546275673      8.78418738084257      2.25725800896518
  H           1.63028897288405      7.92849250962934      3.26841633318806
  H           2.97037985639022      6.44762568319546     -0.55232146621557
  H           3.61827193654917      7.91867834477858      0.18385651779391
  H           4.04964431849930      6.34137898436859      0.83939441340801
  H           0.54815944445652      7.10877451080233     -0.24534412220128
  H           0.08927729494465      8.00273432043325      1.21764463889028
  H           1.30708337922924      8.65499553963250      0.13111326604311
  C          -0.25046537222938      3.91787637927835      3.34441484891331
  C          -0.37318349485132      6.36667064382086      3.66220617186258
  C          -1.30078898518542      5.33175662324426      1.58142950486638
  H           0.35814417438893      3.91544471384648      4.24565977468269
  H          -1.27632802494211      3.69078631203540      3.63271947821551
  H           0.09571251060337      3.11091059145728      2.69948903175960
  H          -0.47000070805231      7.34787797618550      3.20662860369793
  H          -1.29325052155783      6.16731322838371      4.21234183951800
  H           0.44385538118369      6.38261051556081      4.38031685903109
  H          -1.39473446361202      6.32800008547251      1.15833171996031
  H          -1.09257035516539      4.63624487208018      0.76648784468450
  H          -2.25548931462020      5.06059630786545      2.03107716240828
  F           4.42745844482199      3.33173763844836     -2.41547041945988
  H           5.10524033005063      2.44286685848761     -0.76592163031334
  H           4.91711198461929      1.40471006728245     -2.22823997034455
  F           2.61827880713972      1.31255968884153     -3.62919133098818
  H           2.88395443214673     -0.22781675741062     -2.39011184497275
  H           1.22480035558320      0.46102021903969     -2.48302805835772
  C          -0.47369042958080      1.82251723393837     -0.00549616645593
  O           0.14898532283285      0.66129861639282     -0.49716115336258
  C          -1.29560962283026      1.50724674317326      1.22861911108842
  C          -2.62401078287712      1.88760636416267      1.36575036254609
  C          -3.33451881841882      1.55595305403071      2.50738908510594
  C          -2.73171013406182      0.84182283347408      3.52723600537047
  C          -1.40538423762041      0.46416784703156      3.40405466053719
  C          -0.69486188719612      0.79542283622759      2.26612906528057
  C          -1.26722611590188      2.38899013927421     -1.17940721960731
  H          -3.11738107972396      2.44277353527370      0.58462404765540
  H          -4.36773629108748      1.85792274787679      2.59656272832317
  H          -3.28950050964477      0.58357577822304      4.41477479085917
  H          -0.91850988216466     -0.08498570506172      4.19585185169904
  H           0.34949907735572      0.51228709363601      2.20640638660163
  H          -0.59534269794330      2.50141541707572     -2.02926217048582
  H          -1.70299259156531      3.35719733314720     -0.94982727365055
  H          -2.05183116246147      1.68690091842682     -1.45435771687962
