73
Coordinates from ORCA-job TSA2R_3R E -104.409945898720
  Ru          0.26937121706026      0.75411784619230     -0.55660320916810
  H           0.09746829346597      2.26825662071554     -0.57933283889276
  N           1.57759165201864      1.07904761288058      1.06772050740474
  C           1.12517236896837      1.46657341310025      2.26414748043399
  C           2.90367290109510      0.85995464523148      0.88541442098994
  C           1.95808710427206      1.57266304798892      3.36673286612451
  C           3.78574743225412      0.93377074261112      1.97773778876978
  C           3.31031497945858      1.27744489765256      3.21954932546388
  H           1.55903884338646      1.88534542090115      4.31852752353410
  H           4.83023504933113      0.72039742574289      1.81659136319282
  H           3.97537839627590      1.33741142959308      4.06764650306750
  P          -1.30353555903070      0.83648446092529      1.14277246603214
  C          -2.86552760865122      1.89367584558027      0.93308280182884
  C          -1.72097663810311     -0.70802300333660      2.17914830721770
  P           2.21686032453936      1.09762984713559     -1.70747557885881
  C           2.85866062072298      0.28238792825901     -3.24320700358096
  C           2.78489619338825      2.82880855243249     -2.10467299197224
  C          -0.32489230591390      1.83644890992423      2.35607012168355
  H          -0.42176293638782      2.87512921392556      2.01824595810699
  H          -0.69793247305606      1.76404336166601      3.37993209113328
  C           3.35260987737025      0.50842243349267     -0.43800687230120
  H           4.41658875988072      0.62588075947914     -0.63099075903206
  H           3.09495145548726     -0.79234610625922     -0.63277657380414
  C          -0.85908381451630      0.62338356934429     -2.01191263671537
  O          -1.55436775469512      0.67334825722496     -2.92879411696926
  H           0.78698133564746     -1.04333018103406     -0.55912122605325
  C          -3.37578350729077      2.53814735236216      2.22328309824231
  C          -2.53036515139916      3.01629282120220     -0.05131604516479
  C          -3.95164970286226      1.02497170661078      0.29784073435460
  H          -2.65248577323400      3.24197393092269      2.62742014876348
  H          -4.28437802165871      3.09478970836671      1.99580810138834
  H          -3.61940222657236      1.81072754959137      2.98842559153038
  H          -2.24624611069817      2.61016202277823     -1.02017215572372
  H          -3.40328466105507      3.65337426636238     -0.18624181809952
  H          -1.71337773569980      3.63812053045546      0.30929671235287
  H          -3.53302555318673      0.45145992980996     -0.52979372732672
  H          -4.39673248851290      0.34468701451693      1.01919320365689
  H          -4.74641642099260      1.65586834457846     -0.09730389119280
  C          -0.36186055045834     -1.20965414445829      2.67882593789236
  C          -2.63784886940383     -0.52303291471020      3.38452704165594
  C          -2.31854474997418     -1.74993360553084      1.23272652870061
  H           0.00504461270634     -0.60873981405940      3.50888886425125
  H          -0.44429405831696     -2.23967985064560      3.02360075800057
  H           0.37802235177718     -1.18236060126589      1.87727616668013
  H          -3.66139899228777     -0.31358734627310      3.08641229097852
  H          -2.64759500106307     -1.45057244740194      3.95733098307307
  H          -2.28682862516168      0.26717394015324      4.04480829756888
  H          -3.36420332449773     -1.54951953670748      1.01907585831349
  H          -1.77222332510601     -1.74935068821270      0.28927702995194
  H          -2.25257377718978     -2.74481062987409      1.67188297496708
  F           2.05307174801189      3.30972293927693     -3.15793308268952
  H           2.60928828857359      3.48993537440413     -1.24721153444588
  H           3.84302137216711      2.84412201106175     -2.39692786460498
  F           4.17841768831990      0.62895630898579     -3.41185065262344
  H           2.80772355004044     -0.80608823958321     -3.14861917791245
  H           2.30576379615723      0.62626329960011     -4.12551749747899
  C           1.34821108176023     -2.09356203962367     -0.91894380155170
  O           2.67734186999552     -1.95258386239258     -0.96182281853292
  C           0.73289292067380     -2.44460513992809     -2.26692266796671
  C          -0.62048239655557     -2.29618781068382     -2.53131537494090
  C          -1.14396616121976     -2.67314252873798     -3.75414975345200
  C          -0.31969223065056     -3.21470114115973     -4.72621784206220
  C           1.02735694196388     -3.38952545474049     -4.46245053440352
  C           1.54789847860124     -3.01322003239200     -3.23765478592599
  C           0.94248718851684     -3.18946405585707      0.08461080002713
  H          -1.27749547254236     -1.87745613710314     -1.77811810192582
  H          -2.19785400897740     -2.53955901871611     -3.94944287855697
  H          -0.72844774784264     -3.50311341528338     -5.68344807550885
  H           1.67573225082390     -3.82203235212892     -5.21062045155864
  H           2.59470066966286     -3.15797013704735     -3.01114579344419
  H           1.40010485705327     -3.00035150341548      1.05294643791551
  H           1.33987937793808     -4.12965117131638     -0.29498616865702
  H          -0.13405011460176     -3.27922038315989      0.18624321784926
