20
Coordinates from ORCA-job NEB E -40.650089534980
  C           0.41337837739607     -0.40501712417993      0.89218356336456
  C          -0.87286416360257     -0.73120631498052      0.38308088017455
  N           0.52614859045329      0.52090518066478      1.97087438590056
  H           1.13170020543188     -1.21093808648715      0.99881593344115
  C          -1.04736531750765     -2.16413207966089     -0.10636549974060
  C           1.18278268738804      0.80526522818853     -0.59316456668424
  C           0.07337820965015      1.05777530841922     -1.41499538243890
  C          -1.07122448484156      1.59087276708016     -0.85234932054740
  O          -1.73218562563246      0.13101060873261      0.12215859392979
  O           2.20099190654927      0.08723350551552     -1.11078083960446
  H           1.45423662919301      1.58039558673817      0.11927513141662
  H           0.00363868167596      0.47573158296072     -2.32371803289259
  H          -1.94959393249727      1.72551005364764     -1.46215947613618
  H          -0.99235879220712      2.23520665964443      0.01194141367775
  O           1.43750510375265      0.31028866062023      2.75244015992094
  O          -0.24935110374287      1.44897189734625      2.05303097635550
  F          -2.04608860678296     -2.24184731273445     -1.03001910262561
  H          -1.32183917457091     -2.82095996596299      0.72813555987399
  H          -0.12949212541472     -2.52661406991541     -0.58284464967122
  H           2.98860293530977      0.13154791436307     -0.55553972771421
