20
Coordinates from ORCA-job NEB_product E -40.685949626630
  C           2.67391669010168      0.62685191828384     -1.27338977526706
  C           1.41543671168578     -0.07156909035429     -1.81827011701111
  N           2.35120155655224      1.28163915368573      0.01450201060519
  H           3.46417762323668     -0.10649157279114     -1.08937388974275
  C           1.76031777213892     -1.37089363265815     -2.51543657722506
  C           3.18818462128341      1.66778254847179     -2.30267521131689
  C           2.17971913178186      2.73583639733317     -2.61686679186182
  C           2.45644172094190      4.02415857123616     -2.54064519692720
  O           0.31782736549358      0.38365088189757     -1.71900552268822
  O           3.53769343653358      0.91335848201083     -3.45087508293788
  H           4.09603259524820      2.13228518824915     -1.88041655751705
  H           1.21509894942644      2.38767205467055     -2.95349738948353
  H           1.72668837997245      4.77100328142199     -2.79619940667159
  H           3.41421617117413      4.38452903309078     -2.20067178887121
  O           2.83732833060304      0.77495316587854      0.99706114695197
  O           1.63116669457698      2.24220834533473     -0.00658983524860
  F           0.65927447663150     -1.93793396845616     -3.08160333840570
  H           2.17067382618328     -2.09028826755010     -1.79657422710269
  H           2.49095006705865     -1.16990439387016     -3.30879434083216
  H           3.75295387937567      1.52215190411514     -4.16617810844665
