19
Coordinates from ORCA-job NEB E -36.583867684330
  C           0.59966329255784     -0.65981296579817      0.60243866535629
  C          -0.71940193488149     -0.74881718532148      0.09556375777514
  N           0.74380978944454     -0.21011151637655      1.97368078545005
  H           1.24129397368696     -1.52084516240034      0.43685037527321
  C          -1.04749400431612     -1.84894615580466     -0.89273904714812
  C           1.33552857100366      0.84602181282740     -0.32737014118717
  C           0.28392704425664      1.47195660850923     -1.00451093786838
  C          -0.86915954347975      1.75237979433134     -0.22411205082315
  O          -1.50500440251101      0.26238449427545      0.09771177043325
  H           2.13711838121629      0.43125236296205     -0.92449280703395
  H           1.68962612194979      1.35447762998317      0.56036295879581
  H           0.13122067810626      1.23665045577391     -2.05091084608498
  H          -1.71952603755440      2.21102076618971     -0.71270202526544
  H          -0.69271344559741      2.12793562381935      0.78022815301486
  O           1.56680023552839     -0.80340108688166      2.63510050486387
  O           0.04258645629967      0.68853665348255      2.37976422302751
  F          -0.20500129710431     -2.91424612267137     -0.76513749274118
  H          -0.94273431860874     -1.46824075406589     -1.91897892809911
  H          -2.07053955999684     -2.20819525283407     -0.74074691773851
