19
Coordinates from ORCA-job NEB_product E -36.624763242520
  C           2.55598859919770      0.87304542777481     -1.03154320986918
  C           1.30853246515271      0.54553287462835     -1.86017184272149
  N           2.14053070373848      1.10504699282071      0.37886087939194
  H           3.24421996008866      0.02226865975319     -1.01699393827134
  C           1.48732647128504     -0.72541102101838     -2.67625581248218
  C           3.26757341906814      2.12899991602231     -1.58007781620053
  C           2.45674173487792      3.38208185251815     -1.44872249367959
  C           2.90544559865426      4.47302825161843     -0.85676047427306
  O           0.32069148469701      1.21360096239882     -1.86161944157167
  H           3.48677604070380      1.94574583623621     -2.63646318674744
  H           4.21760728547791      2.24474136914954     -1.05277423631704
  H           1.46864220315555      3.35419536130599     -1.88260426255871
  H           2.30898240491507      5.36505685820419     -0.79386262745202
  H           3.88601794635191      4.52023199569150     -0.41076267753940
  O           2.54375462416776      0.29365395804926      1.17933237346487
  O           1.44014490864418      2.04909879644729      0.61392113734261
  F           0.43037332473271     -0.93358310081183     -3.50660033679363
  H           1.55670309519781     -1.58950757193983     -2.00302114082611
  H           2.38954772989338     -0.66252741884871     -3.29678089289601
