19
Coordinates from ORCA-job NEB_reactant E -36.626045708460
  C           1.96596553708387      0.47953410937775     -0.44040154547683
  C           1.30909791646009      0.80139137956525     -1.57330706891904
  N           2.52982232639811      1.33430584430921      0.53139410833279
  H           2.09382338526784     -0.56606437620014     -0.20206306045322
  C           0.64785076701623     -0.30205485053937     -2.37450641599964
  C           4.36762646933712      3.19988017648093     -1.25915059471842
  C           3.43840777830013      2.76028637697268     -2.08592914928235
  C           1.97989122558778      3.08606291034245     -1.95367601212649
  O           1.14843918392483      1.95339865928583     -2.21601626686173
  H           5.40756133801062      2.96173685893118     -1.39741425650464
  H           4.12255588829850      3.81615973110193     -0.41015801731602
  H           3.68850020505134      2.13175270111180     -2.93128204405933
  H           1.67804227104607      3.80317659438612     -2.72393191892200
  H           1.76699107972828      3.50389150843558     -0.96300012999298
  O           3.48144146949681      0.90630767842919      1.15395649238019
  O           2.01038271226264      2.41961866354612      0.73510432216100
  F           0.53049988933235     -1.45788670243371     -1.66379756491014
  H           1.23654152319733     -0.52802903647845     -3.27158410048956
  H          -0.35804096579995      0.01603177337566     -2.66843677684161
