18
Coordinates from ORCA-job NEB E -42.960277391120
  C           1.12184644348526      0.44065223558375     -0.08284413309143
  C           0.74245102893068      1.14740955555628      1.07300272322837
  N           0.70452192013919      1.09798496907402     -1.33850990890451
  H           2.14625496791280      0.08473547474840     -0.15971015772947
  I           2.01324332406221      0.97614729996593      2.78923030117352
  C          -0.03399932366156     -1.02212280403345     -0.00321118915659
  C          -1.30401716761073     -0.42637737810403      0.04673480662583
  C          -1.58400596697176      0.42634533930268      1.16347731768085
  O          -0.45493790643479      1.53869502954369      1.25952496937022
  N           0.24683175091715     -1.84451388840226     -1.18507566952562
  H           0.38170859266556     -1.49747037645392      0.88318965620314
  H          -1.86369303729701     -0.32245862377453     -0.87043175444393
  H          -1.47672728510346     -0.02933854206181      2.14742377949254
  H          -2.49293888382590      1.01166096345731      1.08077358803672
  O           1.57121821597955      1.22348305288062     -2.16438582325127
  O          -0.43061280126856      1.49217026941519     -1.40262986923456
  O          -0.18697307317091     -1.45680014560559     -2.23981292885614
  O           0.89982920125228     -2.84020243109228     -0.99674570761766
