18
Coordinates from ORCA-job NEB_reactant E -42.991486413960
  C           1.89062146837818      0.01619558147892      0.05483415690690
  C           1.28024449074282     -0.96909069471836      0.73764007868108
  N           2.00893031809597      0.02289922225261     -1.36266757993425
  H           2.33196113116797      0.86961974977172      0.54038812591992
  I           1.20891176459559     -0.77611322981372      2.85684963428388
  C          -0.85976253428925     -5.24281326576281      0.14222812334183
  C          -0.38327906212388     -4.04209845845642     -0.15596023972864
  C           0.09320979537147     -3.04969667085835      0.85002891729267
  O           0.74723148726453     -2.01009328791846      0.15476759197769
  N          -1.31631568611484     -6.13784414794176     -0.88933060512572
  H          -0.95020880646591     -5.65514761632919      1.13609012906342
  H          -0.32450265505277     -3.72442876425623     -1.19097010817014
  H           0.77770144699058     -3.52122290652477      1.56932341237942
  H          -0.76575316064055     -2.64746344040216      1.40930000295059
  O           2.59074377162456      0.97548995558776     -1.83846606173598
  O           1.53540456871120     -0.89443851353830     -1.99826541957012
  O          -1.28688828600450     -5.75473375216898     -2.03451743501242
  O          -1.70155005225116     -7.22341976040151     -0.51847272352012
