17
Coordinates from ORCA-job NEB E -34.209741842060
  C           0.57477569106885      0.31684062993490      0.80836501981493
  C          -0.73497398954949     -0.24032656264059      0.55322457447448
  Cl          0.48066504857906      2.14955705764507      0.82386637684901
  H           0.96765527091303      0.04285114649173      1.78549531172230
  C          -1.49266178589337     -1.04894110529136      1.55030596907639
  C           1.53388986533752     -0.08797750951240     -0.34884892204423
  C           0.85882809418186      0.09126800516682     -1.61405029484659
  C          -0.57491470785522      0.48283301047673     -1.64297299741220
  O          -1.36764356942043     -0.01851089808483     -0.60801154052973
  Cl          3.12261693797516      0.89331303817409     -0.26207765416813
  H           1.90635187086685     -1.09088850248184     -0.13627735654398
  H           1.43545792898181      0.44769244191493     -2.45194521829974
  H          -1.05823220146380      0.15475163535451     -2.56795881089047
  H          -0.62358063947900      1.58347900059930     -1.61381595617999
  F          -1.31339090501241     -0.56504219676123      2.82258725502065
  H          -1.15150983586973     -2.09531610164380      1.57750144015499
  H          -2.56333307336069     -1.01558308934203      1.32461280380231
