17
Coordinates from ORCA-job NEB_product E -34.262801280610
  C           3.28771468814984     -2.28661622675740     -1.07013208532521
  C           1.80022936009849     -2.63502067595445     -0.99428327003751
  Cl          3.81074988817499     -1.15833612220761      0.20110345310415
  H           3.87011075747164     -3.20407636891239     -0.94215176862281
  C           0.95610130375744     -1.73152396923208     -0.12256179415471
  C           3.55765575806201     -1.70936394032081     -2.46642109518640
  C           2.86986071756307     -0.40660855618523     -2.70330655225830
  C           1.99404703135859     -0.21537973584096     -3.67244483513802
  O           1.36243662865590     -3.55054623220787     -1.63024419536174
  Cl          5.33016433353209     -1.47396320160690     -2.66911038417118
  H           3.25622390054381     -2.45583323138561     -3.20671815938449
  H           3.15300051017125      0.39250157351395     -2.03264818477713
  H           1.71582452062235     -1.00433375713515     -4.35123377807051
  H           1.51774608932980      0.73774216654948     -3.82155114366479
  F          -0.36690491753694     -2.02683796830332     -0.25583317523755
  H           1.09853720003289     -0.68408508320356     -0.41178611817815
  H           1.22320223001276     -1.86441867081009      0.93242308646436
