17
Coordinates from ORCA-job NEB_reactant E -34.259851378500
  C           1.85579797426097     -0.25285064344313     -0.29680562895706
  C           1.46328979341686     -1.40328315183169     -0.83780221442873
  Cl          2.52308717921745      1.13490128983515     -1.08511868287417
  H           1.76269710841695     -0.11391630705398      0.76724223678600
  C           0.88419571859098     -2.48759891525951      0.04916901283279
  C           4.36119354260376     -2.01655400423122     -3.90848608132292
  C           3.63133772880055     -1.35977337393673     -3.02365063916615
  C           2.14600228881611     -1.19857438794755     -3.15541790237755
  O           1.44208346334509     -1.86354806761946     -2.11349739219110
  Cl          6.06092837885049     -2.19874092779052     -3.76045790599756
  H           3.95234846812006     -2.47328253890322     -4.79717429639517
  H           4.08477683588534     -0.92298751998924     -2.14652646629809
  H           1.78849422562431     -1.68296430318641     -4.06716917548168
  H           1.88146857496683     -0.13722085256697     -3.18339294664142
  F           0.68317775474416     -2.06462208882647      1.33031217314608
  H           1.56711639909015     -3.34396666622716      0.09072808460948
  H          -0.08329543475005     -2.81061754102191     -0.34965217524274
