23
Coordinates from ORCA-job NEB E -55.303707625960
  C           0.46772429016316      0.68921319765336      0.29519882838437
  C          -0.95630227621807      1.03368263970731      0.41434605102371
  C           1.12252943891161      1.47353610980640     -0.84822458442723
  H           1.02941016746835      0.87725008481079      1.21217468171445
  C          -1.59004839244264      1.24330311988197      1.69466978894934
  C           0.48931268169496     -0.92243047344917      0.01831950354640
  C          -0.34057778180949     -1.16884489010450     -1.15008090414086
  C          -1.69068626180317     -0.74801714652731     -1.08758219444527
  O          -1.72510122967182      0.78202405063772     -0.59643164520892
  C           1.88952928097987     -1.52444933195557     -0.06749837078662
  H           0.03758545556248     -1.32533558566017      0.93427877784057
  H           0.12847043745420     -1.36599782621878     -2.09975678369072
  H          -2.28239658418335     -1.16974104586935     -0.27297037017363
  H          -2.23809892374013     -0.73882124613264     -2.02352205223634
  F           2.46336830896152      1.59480464272556     -0.63214637502700
  H           0.72089634325501      2.49261489284336     -0.87910673035293
  H           0.98035089987368      0.99122702373394     -1.81901941649073
  Br         -0.58797615592580      2.19193276609501      3.00498729604730
  Br         -3.37039748337839      1.90899427077186      1.54610510285819
  Br         -1.87961407782551     -0.83240449912275      2.60562223092837
  Cl          1.69683189506692     -3.30202606013946      0.06672064987858
  Cl          2.72221038489407     -1.19596946885511     -1.59598276893459
  Cl          2.91297958271254     -0.98454522463247      1.27989928474357
