23
Coordinates from ORCA-job NEB_reactant E -60.111582255150
  C           1.65926549860009     -0.17383248354788      0.03565543305198
  C           1.58901522922733     -1.51009797181653     -0.04694596880951
  C           2.13876565623027      0.83151046539520     -0.96250380884835
  H           1.32211568382986      0.27464190238736      0.95815039196137
  C           1.04522985167319     -2.24847165257004      1.16083619107295
  C           2.45036386825369     -4.45802555214161     -2.74339784719927
  C           2.69008755760713     -3.20685780463547     -3.09745500849423
  C           2.44186978463257     -2.00223614359046     -2.25375151947764
  O           1.90456715184459     -2.38825302936432     -0.99724188946753
  C           2.72796074728408     -5.61502006845252     -3.65055593228236
  H           2.04172668287534     -4.74353664931305     -1.78710405502617
  H           3.10139291317830     -2.97460719135761     -4.07047508242058
  H           1.74148281162851     -1.34408822365360     -2.78176700834784
  H           3.39110000090301     -1.47092318816703     -2.11528615748444
  F           3.43868173060180      0.63925131586332     -1.31829685906000
  F           1.43389729189014      0.79284215189448     -2.12651700716073
  H           2.05686081715555      1.85229477053305     -0.56526215073159
  Br         -0.77881267947224     -1.66482960645748      1.55301108370556
  Br          1.00877794221677     -4.15268826069519      0.87703472693771
  Br          2.15481833138853     -1.89626418034690      2.73150981009487
  F           3.60376340654719     -6.47614870036235     -3.10616331237468
  F           1.61587679845387     -6.32222518785871     -3.91114257373767
  F           3.23649292345040     -5.25303471174266     -4.83713145590183
