21
Coordinates from ORCA-job NEB_reactant E -44.290207137240
  C           1.41659307999650     -0.05591001437230     -0.11832045087850
  C           1.50291612755475     -1.08029857916576     -1.00501624252799
  N           1.43146681014120      1.24033052865720     -0.47088487051537
  H           1.36107183175803     -0.29442344191086      0.93420290562723
  N           1.48987047453709     -2.41916451764502     -0.52602663010814
  C           2.62172916092826     -3.07390948920366     -3.87489390509345
  C           3.38501453092871     -2.10068975955043     -3.40998344253149
  C           2.83061041756296     -0.78230237766931     -2.95057221001599
  O           1.52993017826242     -0.87788628230736     -2.35983199563545
  C           3.13741379147338     -4.41463871469890     -4.28436378922093
  H           1.55022881198955     -2.97100993030245     -3.94779978557892
  H           4.45639450272319     -2.21838546486949     -3.33536829074956
  H           2.69876241025935     -0.12213044325768     -3.81586080196261
  H           3.52488848672968     -0.30492182414178     -2.24880968219445
  H           1.18833663222600      1.94802876168677      0.19846541700094
  H           1.34959275709844      1.46233104965905     -1.45079859796308
  O           1.47875395916141     -3.32558918398136     -1.33757306481793
  O           1.48155425398459     -2.58126941817821      0.68510238256689
  F           2.70243959429525     -4.74094301236086     -5.53188306159390
  F           4.49180165679354     -4.45624178526042     -4.34070116857692
  H           2.80173053159571     -5.21077610112715     -3.59888271523037
