23
Coordinates from ORCA-job NEB E -59.485531494260
  C          -0.24361893857949      2.22248454167759      1.38122329699090
  C          -0.63650643665446      0.86184278710835      1.66529150558682
  C          -0.88242312287034      2.92463375085073      0.42025980073158
  H           0.49322543462781      2.70967276043198      2.00563904317983
  C          -1.14227125193703      0.50557821481857      2.99952813157851
  C           1.21190548676623     -1.75052146347475     -1.85628381930766
  C           0.30555821081403     -1.40632670751500     -0.95085250204923
  C           0.28830950764736     -0.09153268558941     -0.27726814911509
  O          -0.53387222822645     -0.13037235294719      0.82511178990751
  C           1.21495056032443     -3.07231420515088     -2.55930668305155
  H           2.01888929582574     -1.09382005583944     -2.14332975551385
  H          -0.50009642037372     -2.07715741267417     -0.68575541847482
  H          -0.03497693780328      0.72825129638410     -1.09688269605836
  H           1.27672289495109      0.30789404658061     -0.03045669181763
  Cl         -2.31607454851725      2.32944567020275     -0.30261629929319
  Cl         -0.45331509131199      4.50996841600846      0.01897798424235
  Cl          0.10976870781374      2.04315523328135     -2.25833791817348
  Br         -2.40542535621228      1.82236573585962      3.67658521609748
  Br         -1.94129911269218     -1.24534162358889      3.01337597872498
  Br          0.43067274473324      0.48492484421416      4.27183369696097
  F           2.42021262258445     -3.68378842079443     -2.41985950925963
  F           0.29520146243133     -3.92483035860091     -2.05419838504778
  H           1.02446251665901     -2.97421201124319     -3.64267861683866
