23
Coordinates from ORCA-job NEB_reactant E -59.552368864720
  C           2.03640927123650     -0.61127608297903     -0.00484461362385
  C           1.28673362727017     -1.59583699359690     -0.51387320637798
  C           2.60133439386624      0.56030801582833     -0.71717503266611
  H           2.27084734822587     -0.63743075028858      1.05062013856237
  C           0.75888688859009     -2.65800759073641      0.42906246701843
  C           2.51155855859768     -4.33638718989025     -2.67089336722233
  C           2.79275347250931     -3.05364893878915     -2.50977257683825
  C           1.81663145664869     -1.96202607005036     -2.83925133161182
  O           0.86817114393052     -1.80137131334123     -1.77147805130025
  C           3.44410793744318     -5.44457682247822     -2.28355420773905
  H           1.58261898778021     -4.67674232638619     -3.10644957412739
  H           3.73021003584983     -2.74920878038451     -2.06430936028009
  H           1.18554467530855     -2.23485199832425     -3.68718629352541
  H           2.33321942380082     -1.02348326470330     -3.04584808182265
  Cl          1.49204428568254      1.20720612802968     -1.95124024530416
  Cl          2.93006314145438      1.86077181605278      0.45556208361957
  Cl          4.16665287914631      0.13380564871080     -1.50025196604119
  Br         -0.07372735676599     -1.90922626722447      2.01314225137369
  Br         -0.52364395286420     -3.77768780816320     -0.46613292019108
  Br          2.25939253395174     -3.80170238945021      1.00082464047933
  F           3.61831884299254     -6.30059603943840     -3.32167752974199
  F           4.67246925269642     -4.98588267107402     -1.95309805382699
  H           3.06560315264861     -6.03494831132291     -1.43007516881276
