25
Coordinates from ORCA-job P E -41.653644770510
  C          -1.32418697629029      0.41023301596623     -2.31770428794869
  C          -0.02029328259267     -1.65373162525147     -1.06668305307619
  C          -1.37927031335640     -1.90980928021959     -1.63675586764283
  C          -2.01144517198154     -0.92174232117546     -2.24969941833271
  C          -0.84015410326156      0.77869191242749     -0.89668449518427
  C          -0.01654377041709     -0.34580198450570     -0.23882934766553
  H          -1.80678771396820     -2.89388375339222     -1.53590644483559
  H          -2.99466748235718     -1.02450463326572     -2.67661043750826
  C          -2.20967480374239      1.52699829699815     -2.83368319838343
  H           0.30912047888903     -2.47804012263602     -0.43535001056349
  H          -0.46589565980629      0.34945838990939     -3.00000042190122
  H           0.69670796292322     -1.56373652974842     -1.89136141855886
  H          -1.72833622368409      0.96565515397949     -0.29148074758640
  H          -0.43591145437562     -0.57176437085995      0.74435046069437
  H          -0.27039010824907      1.71120805178227     -0.93209919803519
  C           1.43685422678601      0.05196900692757     -0.00902260014359
  O          -1.85926525842187      2.35220901496322     -3.63559146858360
  O          -3.41645628406142      1.50409008628997     -2.26557518182469
  C          -4.31578583654670      2.53177763116703     -2.65904406183669
  H          -5.23948048499504      2.35192226646595     -2.11555946871758
  H          -4.48834314801754      2.49179991111287     -3.73625403736944
  H          -3.90480366065715      3.51104916133212     -2.40614105425548
  O           2.00985499295945     -0.11955590420907      1.02662840253058
  O           2.06361129059696      0.58596683431993     -1.06848638872983
  H           1.47978278462746      0.68224179162193     -1.83373625454141
