25
Coordinates from ORCA-job TS E -41.555319829340
  C          -0.26738418401587     -0.03770957950065     -0.86783404125760
  C           1.27725652621512     -2.24787132456344      0.12060324430933
  C          -0.06999426407797     -2.30485424544390     -0.01837218551656
  C          -0.83461548327500     -1.23485250787633     -0.53051952500266
  C           0.46907499257060      0.56713558078178      1.18848093937154
  C           1.30333986980905     -0.40469488788097      1.64785405328443
  H          -0.61261437876129     -3.12102795098531      0.43824394142197
  H          -1.91090645149352     -1.29552218566037     -0.46160460098342
  C          -1.04685064610204      1.15562550614993     -1.24043593291637
  H           1.81073008926326     -3.01758285062219      0.65216548689736
  H           0.76355218009609      0.01617106991180     -1.18304662544075
  H           1.88560157265683     -1.60844182319123     -0.49364047040189
  H          -0.53785256693918      0.61974380588662      1.56609306793678
  H           0.94689349778561     -1.12541478169261      2.36698429868926
  H           0.82802664399300      1.47533272719550      0.72910929816412
  C           2.77741636872867     -0.38639917287360      1.50721072071353
  O          -0.54662009712042      2.16861943296894     -1.67079327831693
  O          -2.36248257178120      1.01948754068071     -1.02041094762393
  C          -3.16467776935053      2.14357146932648     -1.35011951599147
  H          -4.18805204804761      1.86789191677065     -1.10951588281952
  H          -3.06975275431893      2.37920637517712     -2.41198073602560
  H          -2.85439676587845      3.01497578214839     -0.76962200516138
  O           3.49891203013443     -1.07975064843853      2.17241699062097
  O           3.29235406819378      0.45182262272634      0.58706093439283
  H           2.61304214171560      0.98453812900486      0.15167277165596
