23
Coordinates from ORCA-job NEB_reactant E -40.307625127790
  C           2.33247203450010     -0.26586830891469      0.59917489014275
  C           2.72586250004768      0.99906476452828      0.65726613467539
  C           1.00055825628146     -0.74645857432219      1.08376423491834
  H           2.99955612467422     -1.00429112007077      0.18407926703370
  Br          4.48821818865827      1.46371967663994      0.01718383500659
  C           3.91001414954933      5.01378462632009      0.78077963266717
  C           2.87285614890878      4.20210570530122      0.67148437560553
  C           2.51669920030248      3.14891923024918      1.67829462688970
  O           1.93669439917704      2.00644976075769      1.07399695708847
  C           4.22201505389750      6.09789606028168     -0.20541703443305
  H           4.61777063036623      4.94646545952358      1.59377614402983
  H           2.19484792580847      4.27747861414653     -0.16797179220137
  H           1.72933630012569      3.54026863443808      2.33416215020681
  H           3.38304487044049      2.87910786356672      2.29281348557350
  C           1.15975259327893     -1.91270944467321      2.05686108254123
  H           0.41062904151171     -1.07604506496487      0.22369641348515
  H           0.46894245629556      0.07679142116036      1.56200127963765
  H           1.68017975376030     -2.73963786002698      1.57926871241320
  H           0.18507174429641     -2.26280685114759      2.38747487722689
  H           1.73086597083905     -1.60548540518304      2.92991833095008
  F           5.48570527523638      5.96783225077087     -0.68423221974949
  F           3.40014463737894      6.07024194977185     -1.27983866425492
  H           4.14966274466499      7.10597661184728      0.24176328054686
