23
Coordinates from ORCA-job NEB_product E -40.329992096800
  C           2.70001748731274      1.54375099602453      0.07638700968480
  C           1.75199950841992      1.56250504067730     -1.08239970028646
  C           2.29993646371893      0.36946789058145      0.99617491351785
  H           3.70155711476869      1.33185222996339     -0.31393061568818
  Br          2.09603310252446      0.08677876351717     -2.34036246032610
  C           2.69274388541256      2.94800636077427      0.74537066996375
  C           1.98667164754338      3.00387672647230      2.07156008494139
  C           0.77539005214626      3.50421693487258      2.22386984948111
  O           0.86209237644694      2.30156764078059     -1.31723503590322
  C           4.11713641861268      3.48404370027304      0.89500163985829
  H           2.18835661471372      3.63959306135722      0.06016283837859
  H           2.53632649313861      2.61150551846613      2.91550255728956
  H           0.21488772416832      3.89543052792982      1.39087792553376
  H           0.29120187143741      3.53129145101330      3.18454794041961
  C           3.44539369644429     -0.10369713704713      1.88173973167402
  H           1.98836190914136     -0.47106934578116      0.37203274672503
  H           1.44372479565039      0.66825358666776      1.60357468164333
  H           4.28180102155753     -0.43935957759063      1.27370657996509
  H           3.11010252256071     -0.93823640572454      2.49234236826874
  H           3.79945248763616      0.68229159307922      2.54059789820280
  F           4.89054751670541      2.68297162547775      1.66420478816218
  F           4.73278538183503      3.54687492064041     -0.31154522143187
  H           4.13887990810448      4.49208389757521      1.33691880992594
