19
Coordinates from ORCA-job NEB_reactant E -36.454188401760
  C           2.45183818460107      0.38949700955224      0.64052902418178
  C           1.55091040942648      0.56846947494481      1.60376171650134
  Cl          3.48335666939428     -0.98007466170054      0.35911063200685
  H           2.61320163312324      1.16561167677481     -0.08719835112880
  C           0.76410928280402      1.84789114190020      1.66995882365150
  C           3.81672572444832     -0.39673563621838      3.67900166135277
  C           3.17979008874300     -1.48103071201243      3.25065908730887
  C           1.75769754843055     -1.51387633993375      2.80225328656339
  O           1.16759024602420     -0.24803627397658      2.62255841236009
  N           5.18232816959378     -0.45651451288930      4.09844175023756
  H           3.38945023788944      0.59224701637755      3.73510570470443
  H           3.70609769693828     -2.42688500497751      3.23484154172471
  H           1.15717339157826     -1.98889456359102      3.58887514882566
  H           1.66677462437856     -2.12609232118814      1.89759358256998
  H           0.95704320358212      2.34479360756561      2.61845456019350
  H          -0.29842032346134      1.61938766700150      1.62630689618045
  H           1.02514469332627      2.51326952902957      0.85549191016343
  O           5.74510249535790     -1.53021673909776      4.08782355400610
  O           5.68738602382157      0.59048964243913      4.44523105859639
