19
Coordinates from ORCA-job NEB_product E -36.460111457080
  C           3.01813921542545      0.73552401046396      2.16807237571519
  C           1.52494636643845      1.05162663462212      2.31025366321972
  Cl          3.48987257445147      0.43484720238466      0.46701327549779
  H           3.57546419234389      1.62685048796043      2.48856166329078
  C           0.89912911250438      1.76867785681919      1.15862991365310
  C           3.42175153143637     -0.43909886694430      3.06414264119801
  C           3.04007453016577     -1.77700411030870      2.50666642135330
  C           1.98325120395306     -2.44950713952909      2.92011241894123
  O           0.94180728862241      0.75478437992053      3.31876419214325
  N           4.89164775690604     -0.37903862213388      3.33840222724578
  H           2.92213719091905     -0.27697748516801      4.02982960731408
  H           3.68211707784365     -2.15873991477219      1.72651589094654
  H           1.33758443072931     -2.07320308342748      3.69639090245761
  H           1.71674111168747     -3.39770968535581      2.48806774812935
  H           1.54267982695104      2.57147260264402      0.80839506958633
  H          -0.07255461816746      2.15732924672784      1.45074874283533
  H           0.76794959973918      1.06465846326168      0.33813083335314
  O           5.49276313001014     -1.41943881604797      3.36515293333323
  O           5.36179847804032      0.71344683888302      3.54234947978625
