14
Coordinates from ORCA-job NEB E -30.150182236320
  C           1.28871271582456     -0.21917283012915     -0.69112686598683
  C           0.47788993430215      0.81351657586944     -1.16221407025084
  Cl          1.10545458371988     -1.77860249191009     -1.44344798041878
  H           2.32300717709891     -0.01447369551145     -0.44094800479199
  I           1.19498009821243      2.79714844882667     -0.62522088054430
  C           0.38753045378366     -0.47904226873522      1.06996245677000
  C          -0.93432239337953     -0.68643908163737      0.67460433838076
  C          -1.63188976519355      0.37205078660024      0.06693879035598
  O          -0.74586033487567      0.69018420202087     -1.38272189847658
  Cl          1.26008712608765     -1.79430486993192      1.78304076982955
  H           0.67815031543610      0.47272851255933      1.50299116271517
  H          -1.25551533962936     -1.69991153920548      0.48408654452894
  H          -1.53457731341490      1.36330926652039      0.49751055677997
  H          -2.61364725797233      0.16300898466373     -0.33345491889106
