22
Coordinates from ORCA-job NEB E -43.917682664570
  C          -0.32776346417325      0.60968753107630     -0.96686976907308
  C          -0.96939603421179      1.36998540527087      0.04903153564264
  O          -1.08047554414703     -0.31521026157518     -1.63603393175462
  H           0.36436833247113      1.16455364960374     -1.60582446003201
  C          -0.50534888998763      2.78884825942346      0.26902405091550
  C           0.85901691520645     -0.48616709433193      0.06900167725383
  C          -0.00215690129611     -1.03253288615116      1.04530703140337
  C          -0.58337281843649     -0.20251370222968      1.99725747184429
  O          -1.65112469025065      0.82479889965098      0.96281828655646
  O           1.47223990610688     -1.24297432207225     -0.89386530927680
  H           1.55413146934284      0.28846970235661      0.38613168990432
  H          -0.49619972147315     -1.96771837115661      0.83150487257517
  H          -0.00476799399377      0.60865241055881      2.41917735209855
  H          -1.31823985527541     -0.61989734775550      2.66720604736292
  H          -0.55155322776302     -0.70537484910143     -2.34242240764199
  Br         -1.33595664961884      3.49719581801065      1.85649828023163
  Br          1.45990541296553      2.97906744690235      0.48131652836570
  Br         -1.00555187607802      3.88978747272895     -1.26611822535913
  C           1.08885941626732     -2.59745809160727     -1.04146274972658
  H           1.34993055540435     -3.17242050897050     -0.14802414306089
  H           1.66289456283472     -2.96789385652950     -1.88910093030531
  H           0.02056109610594     -2.71088530410169     -1.24455289792396
