22
Coordinates from ORCA-job NEB_product E -43.943480744070
  C           2.18938133188356     -1.31926095562279      0.63661174645075
  C           1.48561299652157     -0.24506111655768      1.41104724266082
  O           1.26213189261299     -2.11544096681952     -0.03684966743824
  H           2.88767362495624     -0.92884437823797     -0.11008802068233
  C           2.10594644731762      1.13666982304556      1.45868585912164
  C           3.03433924117135     -2.13423411491777      1.71273121312056
  C           2.10319179142934     -3.04780084209410      2.45545966589976
  C           1.69586923860624     -2.81364056308286      3.68880903545469
  O           0.43650200300549     -0.44420379214879      1.96708922529212
  O           4.14330647744552     -2.73491829156101      1.11201337156315
  H           3.47829115332711     -1.42075770952304      2.41673633274604
  H           1.74944173900621     -3.90795143159775      1.90583958007032
  H           2.03513257334461     -1.96034732181724      4.25317175789698
  H           1.00608494621521     -3.47082267539235      4.18907625674926
  H           0.47471061089635     -2.20941412887423      0.51946123012565
  Br          1.37529772686042      2.13200339166688      2.94468876252599
  Br          4.03583343995510      1.19492436427420      1.51222121376949
  Br          1.49648923494303      1.93356191907952     -0.22908489860703
  C           3.89664293421474     -3.80062487579087      0.21207409036121
  H           3.62973750308552     -4.71763065500644      0.74585884912061
  H           4.83674346639646     -3.95632817576880     -0.31356225974292
  H           3.11353962680531     -3.55217750325294     -0.50689058645852
