20
Coordinates from ORCA-job NEB_product E -42.052583975400
  C           1.38117135262340     -1.86492224862938     -1.25476161325832
  C           1.11555685593815     -1.44581397853397      0.16488287718961
  C           1.02255926400570     -0.72003091958200     -2.19786964206421
  H           2.45469521500104     -2.08558592970395     -1.32377585691896
  F           1.51091585036386     -2.41987305816374      1.03935465405905
  C           0.61187301083525     -3.18642475328235     -1.51523287065211
  C          -0.88118368031961     -2.99101186649026     -1.51093878487799
  C          -1.65126028826399     -3.35436949855039     -0.50392780305695
  O           0.65055874834546     -0.45115656253755      0.58652569378877
  C           1.04470438866608     -3.83111101995820     -2.82960189177893
  H           0.88973151085727     -3.90548872532535     -0.73494648067368
  H          -1.29508544226713     -2.52520833770489     -2.39348708449211
  H          -1.25280734066842     -3.82469237153664      0.38011923020404
  H          -2.71418162513401     -3.19159690868894     -0.52179250325935
  H          -0.02451519621428     -0.45069465644500     -2.09074910576701
  H           1.21883305664050     -0.98767292404105     -3.23124961058203
  H           1.62072774451193      0.15275873968840     -1.94847219048622
  F           0.60838848982550     -3.18962421918390     -3.92123310065707
  F           2.38066787052940     -3.90592297455375     -2.94470681288086
  F           0.58425021472389     -5.08645778677708     -2.92103710383568
