23
Coordinates from ORCA-job NEB_reactant E -62.366403397300
  C           1.49320037374217     -0.14477160344871     -0.04065059920636
  C           1.53192751686085     -1.43620688999362      0.30324609068033
  C           1.99549684919543      0.51544185317152     -1.28099552037176
  H           1.04410457368647      0.56804688625926      0.63274569029574
  C           0.97382539825054     -1.92160166288242      1.62051902475754
  C           2.89492702354102     -4.51319377590237     -3.03397016700570
  C           3.02477554606638     -3.94852157554992     -1.84478725948343
  C           2.65822123321383     -2.52606814081953     -1.56822078537716
  O           2.00897130333343     -2.52422763410158     -0.30230777921257
  C           3.26610376440758     -5.90186959622673     -3.38225289383695
  H           2.50281012874801     -3.95400212503715     -3.87555092957621
  H           3.40654046073958     -4.48930013367028     -0.98962434353973
  H           1.99728832560557     -2.13410888219135     -2.34612174760507
  H           3.57397377993440     -1.92330251763040     -1.51988733277809
  F           3.32084898622510      0.36547786927078     -1.47890319808165
  F           1.40480000678275      0.07124547780591     -2.40914185115633
  F           1.76959604149191      1.82819518048360     -1.23127709324120
  Br          0.11573950859089     -0.60103386611518      2.72465692498918
  Br         -0.31916185188212     -3.33512451323937      1.24006499831493
  Br          2.45916796874898     -2.69771374322468      2.63051885674672
  Br          1.68778118727142     -6.82376418429761     -4.12100440208446
  Br          4.65734610453068     -5.86083017957551     -4.78531927978581
  Br          3.94131577091511     -6.96096624308465     -1.90633640344197
