23
Coordinates from ORCA-job NEB_product E -62.371647149870
  C           2.23836194620164     -2.19160498703596     -0.52117492133073
  C           0.83796939057820     -2.48629111841890      0.01901368504778
  C           2.27638038175098     -0.68920305579304     -0.85989454514941
  H           3.03134621590221     -2.37601051087689      0.21031161999948
  C           0.66693438047519     -2.87034779045026      1.48515151710597
  C           2.48218162473272     -2.97466352431108     -1.83744918700534
  C           3.64656391896767     -2.41010996658923     -2.60931853121134
  C           3.53814563406764     -1.94919783798534     -3.84108612626910
  O          -0.13451248009018     -2.32763232867691     -0.66127385685922
  C           2.72957965491305     -4.46338007695850     -1.60302392460467
  H           1.56973493557808     -2.88454145460658     -2.44514712978753
  H           4.59822184413425     -2.41696864909966     -2.09584864699007
  H           2.59755853064490     -1.92803380515931     -4.36637799121576
  H           4.39381228247867     -1.56732861376458     -4.36823113442875
  F           3.52930994113493     -0.25935544544807     -1.03605408099921
  F           1.59447053206370     -0.39554263989611     -1.96477899704631
  F           1.76642672190435      0.05910158183602      0.12104293484864
  Br          0.44544236749766     -1.18956329371334      2.46945393920244
  Br         -0.96623819502154     -3.89399168878242      1.67115280548470
  Br          2.13560523292934     -3.83751466721275      2.27991324496667
  Br          2.96708199030849     -5.35203528716550     -3.32256377301660
  Br          4.32959567595895     -4.78993732821579     -0.53290232163573
  Br          1.21022747288911     -5.32474751167581     -0.72281457910592
