17
Coordinates from ORCA-job NEB_reactant E -36.877816452450
  C           2.33340606790056      0.44214945436889      0.33388137850640
  C           1.47145153988668      0.97723286383022     -0.51946494798608
  F           3.07946751658846      1.13341347173135      1.22802657859991
  H           2.52178311867349     -0.61628167076979      0.38865255051419
  H           0.93436219008778      0.30933220842427     -1.17760766609185
  C           4.14959693367508      3.75807955891593      0.34139148952452
  C           3.14501603574249      3.49864796834581     -0.47914770925681
  C           1.73365353906792      3.29057176177893     -0.02168909857733
  O           1.09243186466964      2.25458450971231     -0.74226827157238
  C           5.55730193389634      3.97806930665044     -0.04702523588327
  H           3.98776097300775      3.82160477541042      1.41073547555248
  H           3.28701778144151      3.41045217632748     -1.54843203322775
  H           1.14778778718862      4.18711840967975     -0.25545268318409
  H           1.68909895307377      3.11217988929185      1.05800088610781
  Br          6.12198047415450      5.77736740800023      0.54323558864445
  Br          6.70435403988782      2.66038310786788      0.86481049945159
  Br          5.90902925105755      3.85009480043402     -1.94974680112179
