23
Coordinates from ORCA-job NEB E -36.792566941200
  C           0.15632629090060      0.01314279888884      0.80490027200587
  C           0.12262859674298     -1.28119527438433      0.26054918940053
  O           1.37032293679636      0.69327198454314      0.85886077532343
  H          -0.48094135901083      0.18883391852093      1.67625592717276
  N          -0.97707710937111     -2.08390909474629      0.52322407568964
  C          -0.58565249845080      1.05800464098833     -0.74256210874170
  C          -0.54592368889431      0.21612745022119     -1.85091319163971
  C           0.67275487819079     -0.48191891056002     -2.05701115842762
  O           0.78966951903190     -1.56494438537385     -0.80942285337339
  C          -1.91424747427600      1.60962085688550     -0.29280295787868
  H           0.23645119051392      1.75746057401445     -0.63698334426073
  H          -1.46089808319815     -0.27962670325858     -2.15089354747933
  H           1.57842884193266      0.09624790050746     -1.90252921723512
  H           0.73536730667417     -1.16046501993038     -2.89836581262453
  C           2.20269642361739      0.26708851353535      1.91365010764217
  H           3.08600681012498      0.90192691907839      1.88071948163925
  H           2.49834051705582     -0.78075671904703      1.79039839521797
  H           1.70394956302415      0.38446553770768      2.88396788051360
  H          -0.96881328699186     -2.97393108870986      0.05005694825227
  H          -1.33944356569798     -2.09674259320617      1.46124813572510
  F          -2.33833377791843      2.59842177136715     -1.15730422794025
  H          -1.84875775455549      2.07941393099720      0.69335504888417
  H          -2.69285427624074      0.83946299196089     -0.29839781786569
