23
Coordinates from ORCA-job NEB_product E -36.858894096100
  C           0.84288875321170      1.32742901158321     -0.61953196054210
  C           1.68219760303788      0.10240119013005     -1.02191837955562
  O           1.60330597243560      2.28969104658819      0.06605643863186
  H           0.00209954176705      0.99192450204156      0.01671304996491
  N           0.95745200697708     -1.03180607735728     -1.18257220431727
  C           0.29683510662297      1.98733769667942     -1.90471411969302
  C          -0.63650414822976      1.07105324222696     -2.63736210617490
  C          -0.41768901875602      0.59944189080797     -3.85014126136706
  O           2.88052387891340      0.13352282849891     -1.15865587521642
  C          -0.42819160001625      3.28340619862320     -1.53136895198819
  H           1.15038765181038      2.24250254080710     -2.53895468352370
  H          -1.55401891385800      0.83349665376129     -2.11094465798727
  H           0.47909206361090      0.84023906363702     -4.39552565903864
  H          -1.12594585104585     -0.03873478956224     -4.35048624383172
  C           2.10211361839842      1.85596486773979      1.31038400621025
  H           2.59835682191194      2.71841358820241      1.74973660392949
  H           2.82239262381605      1.04191310492551      1.19528489296756
  H           1.28574108386284      1.52773558881205      1.96699434184885
  H           1.43162375833538     -1.84049987747690     -1.55224753133364
  H          -0.04603865932288     -1.01625227385312     -1.22425660729454
  F          -0.84451987297386      3.93589486590149     -2.66422854898893
  H           0.24272024796911      3.95764370703424     -0.99448283720121
  H          -1.32562266847806      3.08198143024916     -0.93597770549868
