15
Coordinates from ORCA-job NEB_reactant E -30.177630117230
  C           0.49978832386859     -0.31385144212945     -0.04300298253036
  C           1.35689967190922     -0.91103358830888      0.77702198171295
  I           1.08607151372536      0.97487140219857     -1.57681281697874
  H          -0.56282676515586     -0.46593278194672      0.02289282104778
  Br          3.23030758767937     -0.68789695823129      0.66561819045603
  C          -2.29985262170762     -2.70520428092787      0.87842035631337
  C          -0.99235239124786     -2.80309636278121      1.11039689000370
  C          -0.26650725496710     -1.99524615223118      2.14018026442308
  O           1.08472088487039     -1.74326655159800      1.80036050675150
  C          -2.95805994641823     -3.50990998483043     -0.07365969819886
  H          -2.92893210011343     -2.00491378753177      1.41402510885980
  H          -0.38654238043837     -3.51411585133492      0.56408335499171
  H          -0.19596108233832     -2.57384264489703      3.06923861221305
  H          -0.79037826370480     -1.05356090814236      2.35325383069454
  N          -3.50197517596136     -4.15460010730746     -0.84901641975955
