26
Coordinates from ORCA-job NEB_reactant E -35.777112879060
  C           2.12267301297949     -0.18280473270842      0.03087012127738
  C           2.04270662784423      0.12721233262287     -1.26067953692558
  C           1.43608179456554      0.55524632076539      1.13656292104893
  H           2.74186190500622     -1.02246597703317      0.30420374376284
  O           2.75182586738418     -0.61983505431240     -2.16925907039226
  C           3.34501837718607      3.15413062983439     -3.58611896091717
  C           3.17252920922924      2.54001238210316     -2.41720447773571
  C           1.85460896021847      2.44806332900354     -1.72020560169918
  O           1.27217882434087      1.13466364355862     -1.77259834097483
  N           4.55939761160936      3.32629160746842     -4.21690524704870
  H           2.51574182069023      3.64759996956527     -4.07637496962373
  H           4.00233677466913      2.04141650399264     -1.93462016123324
  H           1.11072168465865      3.08639740731537     -2.20204521849058
  H           1.96257257182697      2.74659166417406     -0.66936619009249
  C           2.43644569786427      1.27576270605680      2.04244630657051
  H           0.87184396794070     -0.16186829698068      1.73958595151378
  H           0.72597095067521      1.26946592989508      0.71733597863515
  H           3.12985646255627      0.56190668462773      2.48121944895706
  H           1.91784028905484      1.79378230496703      2.84628938249085
  H           3.01257879474010      2.00463897541652      1.47599588222388
  C           2.32041352097765     -0.56102322116273     -3.51242110633006
  H           2.94249945809159     -1.27401987403302     -4.05057323806733
  H           2.45448600852529      0.44006561801317     -3.93309343502963
  H           1.26822507251150     -0.84583238574381     -3.60013828450815
  H           5.30128321450260      2.72665586179716     -3.88837041692418
  H           4.53290152035133      3.43324567079703     -5.21773548048755
