79
Coordinates from ORCA-job A2R E -116.585202578060
  Ru         -0.35684288195748      1.96812366555161     -0.20853053323884
  H          -0.17029070703940      0.50728329377690     -0.70073358990800
  N           0.90040173712954      1.46267176387176      1.38300797600656
  C           2.22827136172830      1.36751465824934      1.19051107805597
  C           0.42303740851358      1.26200821393248      2.62382797268798
  C           3.11030271455839      1.12361239907426      2.23405077729092
  C           1.25519133360188      1.00367568361232      3.70320798770798
  C           2.62528417874638      0.94493989660915      3.51608984533768
  H           4.16675568143079      1.05464346390115      2.02901201536766
  H           0.82098179727826      0.85222642405395      4.67949237396106
  H           3.29138957327364      0.75149307108985      4.34232502779599
  P           1.62006755535434      2.53720370103430     -1.20942716949020
  C           2.03931054625101      2.00626886518313     -2.98407553178211
  C           2.34135733430400      4.27713265142276     -0.89470671293775
  P          -1.93713575891747      1.36757286867659      1.24047065337846
  C          -3.38487887136838      2.45437176857292      1.66534176231908
  C          -2.82137116835489     -0.26839428749766      1.26932945295826
  C           2.74479511281865      1.47059414809733     -0.20847884764495
  H           2.66264234807677      0.46650619949765     -0.64381966262337
  H           3.79265604910661      1.77954328216904     -0.23101245033371
  C          -1.06056167841238      1.32458539605830      2.85573056337801
  H          -1.39465536146128      0.47811852457356      3.46762392290138
  H          -1.32633899696456      2.25521357740410      3.37755556711009
  C          -1.47416241196465      2.40615485080260     -1.60784630198814
  O          -2.18527688526793      2.67956331051236     -2.47679469324663
  H          -0.52280384534339      3.38383314264547      0.41530036851981
  C           3.51651720847181      1.69801549730220     -3.23188067482653
  C           1.23889231585225      0.73221906492997     -3.25891841835833
  C           1.53331777024150      3.08384217784130     -3.94412202689192
  H           3.84630052498210      0.85339637655851     -2.63201920939297
  H           3.64466232978366      1.42978182851844     -4.28063312631886
  H           4.16210001785264      2.54391025137433     -3.02683096629564
  H           0.17080797334881      0.93017433707185     -3.18914473444761
  H           1.46158983018920      0.36581303101862     -4.26084481168493
  H           1.47888364124187     -0.05417705068053     -2.54727914584730
  H           0.52991386034183      3.39504729608590     -3.64956891969257
  H           2.18683435699047      3.95199055307945     -3.96305999253092
  H           1.48214761968391      2.68422846432227     -4.95660494972244
  C           2.43282914608115      4.42696482310234      0.62748204743377
  C           3.72458334217763      4.55487917126908     -1.47928577926306
  C           1.33354210718691      5.30165605720376     -1.41844731590090
  H           3.23348064300373      3.82034119377578      1.04708575149137
  H           2.63249244674324      5.46715078209680      0.88317200565964
  H           1.49014088423623      4.14467443549487      1.09481672414347
  H           3.70665411066659      4.60137098688066     -2.56418239066271
  H           4.06716932660430      5.52436783005530     -1.11664947704799
  H           4.45188995880394      3.80975804828990     -1.16299288972176
  H           1.35994074002271      5.37987344843603     -2.50100555792224
  H           0.32652008547438      5.01364875305797     -1.11638216239506
  H           1.54974093974926      6.28591048670080     -1.00459860453814
  O          -2.49357468524792     -1.22034246221587      1.93239931754432
  O          -3.77779786981045     -0.22886819692004      0.36277711510663
  C          -4.48785817162959     -1.42622250804469      0.05453664250847
  H          -4.15531331198588     -1.78180415517935     -0.92146673555510
  H          -4.29569286062091     -2.18342478621422      0.81666009883374
  H          -5.54824786425724     -1.18051992581752      0.01857040532816
  O          -3.59993465496592      2.96018913010977      2.73332393517938
  O          -4.08053222932515      2.61073554536201      0.55776079876294
  C          -5.20629054471815      3.48423416700296      0.59527697358339
  H          -6.02824765088523      3.01395323010054      1.13935304653943
  H          -4.93775220055923      4.41930360117656      1.09005428123320
  H          -5.48686570644080      3.66294116646710     -0.43952533301124
  C           1.37821331116238     -1.99969822242870      0.80582111116481
  O           2.47181923312677     -1.47308335016664      0.73816691927682
  C           0.67241194297011     -2.46040409693143     -0.41356269071636
  C          -0.67517089210928     -2.81524959993297     -0.42365360660828
  C          -1.27507251196864     -3.21557843842541     -1.60275576449753
  C          -0.54592883217394     -3.27361316864166     -2.77956537893273
  C           0.79608934166900     -2.93168745903311     -2.77769575086650
  C           1.39839359508393     -2.52701716615093     -1.60318970151680
  C           0.69620643430389     -2.23651175542707      2.12517109880264
  H          -1.26074272506570     -2.76245701925520      0.48009639437263
  H          -2.32077587415521     -3.48941226868804     -1.60664166880261
  H          -1.02392095026485     -3.58509325930424     -3.69683929862735
  H           1.36887099855101     -2.97705930395653     -3.69228965325599
  H           2.44693559416489     -2.26471373087097     -1.58003939149691
  H           0.47223963418448     -3.29495365791821      2.24272422858410
  H          -0.24280580405786     -1.68756868468498      2.16423548973453
  H           1.34246791017537     -1.90507200067211      2.93493989048253
