79
Coordinates from ORCA-job A3R E -116.555120153960
  Ru          2.09562643648392      3.35286976900518     -0.12077486888472
  H           0.75293557042632      2.14915857063363     -0.28933458405159
  N           2.42350503794193      2.18806508494815      1.60445401580639
  C           2.86825642930563      0.90337926097019      1.40051046796289
  C           2.07792472099827      2.58571097195869      2.83614854800268
  C           2.89789112404475      0.00189609515498      2.50302525710930
  C           2.12474402658036      1.74847390967186      3.93144967992487
  C           2.53972147613234      0.42233996487463      3.74837361939814
  H           3.22219686583743     -1.01162783589720      2.32234442946983
  H           1.84045709115762      2.11213727069672      4.90464734412060
  H           2.57142614685390     -0.25253454162928      4.59088617008508
  P           3.56302553517079      1.80312499724136     -1.02765407691901
  C           3.26231512883491      1.12502125293057     -2.77414496214760
  C           5.41902548121303      2.22866736565612     -0.81982403947774
  P           0.96027267140473      4.61736386026844      1.40263806591115
  C           1.51080112303387      6.39530117377141      1.44940380830385
  C          -0.81553052666714      5.00757262568535      1.84278671646668
  C           3.21496542094988      0.49239919704032      0.10853016473775
  H           1.23995728126244     -0.00479808650185     -0.10721148526764
  H           3.66494868758777     -0.48381693283272     -0.01993313841074
  C           1.61145438317921      4.00801441092107      3.00535686294410
  H           0.85206186600354      4.09027257341150      3.79020667909542
  H           2.45946122255855      4.65867401838389      3.26280831461134
  C           1.82445558677390      4.38117289814519     -1.62714184596499
  O           1.70250920379220      5.08405005365157     -2.53297647982655
  H           3.25303046859387      4.28081230261858      0.22734173244403
  C           3.67854087722921     -0.33739959898658     -2.91600551083060
  C           1.75549198310833      1.22287983673182     -3.03192401355108
  C           3.96208441320818      2.00173962181077     -3.81076113799338
  H           3.09182679958798     -0.96672146899045     -2.25098331102464
  H           3.49218901173743     -0.66536504086234     -3.93839384430203
  H           4.73156935160994     -0.48686583434133     -2.70042259234196
  H           1.40493223405164      2.25057233024257     -2.90959373645465
  H           1.53679849654655      0.91634127283977     -4.05443453385299
  H           1.19423950198601      0.57022865976412     -2.36864470518861
  H           3.75171321813582      3.05236371230203     -3.61292711193334
  H           5.03683837134990      1.84590975869254     -3.81632939901622
  H           3.58845996141646      1.76127166141221     -4.80602884888654
  C           5.61861408328482      2.41106391790758      0.68741660535619
  C           6.34780388773855      1.11008490014519     -1.28640386873043
  C           5.75119350745136      3.55173558079925     -1.50866692635110
  H           5.45502869472983      1.47760497335595      1.22289425556071
  H           6.63538631702133      2.74470548137661      0.88954376937348
  H           4.92931143418008      3.16222575253056      1.07447278259037
  H           6.35445901186054      1.00632875955244     -2.36796398788245
  H           7.36669680378517      1.33230235367199     -0.96936772262492
  H           6.05732645908526      0.16099143305271     -0.83860487890609
  H           5.86798358932785      3.43884736337623     -2.58119989992204
  H           4.95855553014872      4.27637917594646     -1.31525568965618
  H           6.68433278985860      3.94888756336695     -1.11101309100550
  O          -1.32356398737385      4.83488866881207      2.91579315436077
  O          -1.37917668148292      5.50697105548991      0.75914622626969
  C          -2.75147499481536      5.89477033898372      0.81182417823514
  H          -3.35147542717961      5.12457519732399      0.32409562828126
  H          -3.06804074332568      6.01236487927754      1.84916459013361
  H          -2.84197532152828      6.83549510951038      0.27197950185006
  O           2.15028670230186      6.90818510705445      2.32363755627851
  O           1.11387424301261      6.94845866743952      0.32008678796786
  C           1.51545763310533      8.29407573662968      0.06503765278166
  H           0.95541111414256      8.98063765317895      0.70315909530920
  H           2.58216942327264      8.40723720111034      0.26401983605386
  H           1.29808596756560      8.48105493289983     -0.98328196394202
  C          -0.11595799181863      1.40323115758044     -0.17747276372258
  O           0.32777544433453      0.10668035549612     -0.46003053185075
  C          -1.18724695247489      1.81060498999900     -1.16133469632729
  C          -1.35088754697714      3.13865881248406     -1.52755435835972
  C          -2.37150222043880      3.50631284797277     -2.38526654531440
  C          -3.23329537029211      2.54702237001037     -2.89026235651410
  C          -3.06836903997630      1.21932226657417     -2.53448706402515
  C          -2.05297749438113      0.85162005926904     -1.67028422075838
  C          -0.68884044395247      1.47275289101542      1.24504541503769
  H          -0.67127009651301      3.89470175673346     -1.14579360999012
  H          -2.48668399746130      4.54292346732951     -2.66599076613111
  H          -4.02723378416707      2.83361465033429     -3.56415587509934
  H          -3.73362402884757      0.46630945979088     -2.93049935578273
  H          -1.91158347904686     -0.18076044976083     -1.39083496557123
  H          -1.57069705826745      0.83558970966900      1.29298912970320
  H          -0.97982202939411      2.48968707300096      1.50619945181560
  H           0.03229337408584      1.10655163831558      1.97395187144129
