79
Coordinates from ORCA-job A3S E -116.555413415110
  Ru          1.81864080950507      3.35941178101086     -0.21273883405898
  H           0.44415931542843      2.20247707735396     -0.31837197172621
  N           2.25738508788470      2.34320496759697      1.58070315701997
  C           2.72127825750511      1.05710757740285      1.45877261198402
  C           1.98271118028083      2.83772991761014      2.79409637434556
  C           2.85010202261288      0.25508291137282      2.62550570256762
  C           2.12523356856978      2.09790803818464      3.95005775895999
  C           2.56369077114839      0.77291792580885      3.85333421686240
  H           3.19601128693410     -0.76094527634219      2.50935902692772
  H           1.89854786968647      2.54080596112051      4.90538063216521
  H           2.67573980980917      0.17543759668702      4.74598436663010
  P           3.29959856503489      1.78001766857848     -1.05405469020639
  C           3.00715652754139      0.97154230858027     -2.74702838863961
  C           5.15163842450542      2.26358366718364     -0.90512994254815
  P           0.84868103856584      4.80550825707747      1.27059201261555
  C           1.72600091071666      6.44373042724110      1.08213766100594
  C          -0.72616394296371      5.67140969244502      1.77745815260905
  C           3.00411105890006      0.54635917412451      0.18158296539008
  H           1.15332150328182      0.08665137838136     -0.08259122654386
  H           3.48281191396217     -0.42287479529366      0.11356604123921
  C           1.52432699505809      4.26825392605599      2.88714460390865
  H           0.77843321571318      4.39880655790324      3.67761809977701
  H           2.38068947752906      4.92604316514978      3.09988506796543
  C           1.39433757470411      4.25273979935201     -1.76905428608884
  O           1.15438213987273      4.86832675530126     -2.71423348673082
  H           2.99717081883132      4.30420404159510     -0.03436010374932
  C           3.43737359013901     -0.49344595234194     -2.77651726247529
  C           1.50160174906122      1.03666092752436     -3.01867656697818
  C           3.69854894174058      1.77468689431850     -3.84714225454246
  H           2.85001242262309     -1.07723178269992     -2.07170649745276
  H           3.26420625242081     -0.89815313461955     -3.77342182022375
  H           4.48951018959038     -0.61643317731554     -2.54094341694706
  H           1.14727880590399      2.06861960524292     -2.96468304931888
  H           1.29451416995050      0.66165114787720     -4.02083962888555
  H           0.94621156456755      0.42269835682734     -2.31501934866996
  H           3.47369120743278      2.83424984013894     -3.72973349304678
  H           4.77485233841170      1.63274340503342     -3.84238208134998
  H           3.32900769505774      1.45403783283907     -4.82118971322313
  C           5.37493193001862      2.57104361604328      0.57857371882360
  C           6.09491947396330      1.12578538513708     -1.29076941342484
  C           5.45305719669711      3.53158850767297     -1.70368651902517
  H           5.22908039605993      1.68442404127205      1.19289464471616
  H           6.39328370549660      2.92533815357549      0.73282917538335
  H           4.68933314288568      3.34871459900957      0.91727014726563
  H           6.08768368049228      0.92812243007257     -2.35892966477171
  H           7.11401446467910      1.39300537389576     -1.01147818047126
  H           5.83011016925362      0.21398661334158     -0.75777041585164
  H           5.58367011730392      3.33101276262655     -2.76154377391615
  H           4.63908900253097      4.24717640485415     -1.57839449918649
  H           6.37087250102430      3.98802639683876     -1.33507416886586
  O          -1.06604072560685      5.91009448926659      2.90160860459779
  O          -1.34588262193062      6.03170323646315      0.66653752006194
  C          -2.53106299986899      6.81498277150441      0.79558005427494
  H          -3.35227830788772      6.19252116406384      1.15718464862369
  H          -2.36734619861117      7.63311917579436      1.49894683755701
  H          -2.75364140120019      7.19763893042110     -0.19708911315306
  O           2.52152574622570      6.91121461340795      1.84754657211228
  O           1.33276829470356      6.95980313939175     -0.06722242614983
  C           1.96359766559059      8.16614566762940     -0.49493399121434
  H           1.77063996855537      8.96798224839097      0.22063619711257
  H           3.04045891753410      8.01045802000941     -0.57748439307005
  H           1.53623919778472      8.40258380108422     -1.46563808440270
  C          -0.32628723711732      1.37263731494777     -0.05136658408071
  O           0.19795303926393      0.12032054441957     -0.36004140919193
  C          -0.68567270090017      1.49743822406133      1.41797882341189
  C          -1.31689131265850      2.63897047483795      1.90060598794169
  C          -1.65060240407269      2.74876462095486      3.23863425282380
  C          -1.36012910775024      1.71453242226534      4.11245630489692
  C          -0.75813165962000      0.56470170406228      3.63511715408282
  C          -0.42780410861995      0.45347584878317      2.29621350325505
  C          -1.55308576822223      1.60031941681053     -0.93745089478223
  H          -1.58691536913030      3.43004631477863      1.21243886458927
  H          -2.13281993477306      3.64505706781406      3.60038438582813
  H          -1.61279991837780      1.80330738566767      5.15841570617832
  H          -0.54212222640503     -0.25355974684173      4.30578869297221
  H           0.02638791371193     -0.45362477584504      1.92714418149010
  H          -2.32834764082114      0.89186369813254     -0.65281171436660
  H          -1.28849056386783      1.42583514842479     -1.97705299613487
  H          -1.93285944385081      2.61247833065253     -0.83500812450729
