79
Coordinates from ORCA-job TSA2S_3S E -116.550405076820
  Ru         -0.59059607965112      0.31676205963606     -0.44988243808136
  H          -0.05329128516215     -1.34021432548815     -0.57401127373308
  N           0.49885490653597      0.32074341985853      1.35550506678793
  C           1.85009160263666      0.24443524293299      1.25773052563687
  C          -0.08370216305743      0.30425141128862      2.55792279558957
  C           2.63521133062712      0.15479436900031      2.42083347780165
  C           0.64936589489166      0.22226319931166      3.73062090568694
  C           2.03563149716841      0.14926714029315      3.65568169648052
  H           3.70765542879544      0.08968708310019      2.32068838474035
  H           0.14108383473238      0.21462287723722      4.68063949163923
  H           2.62719622446664      0.08723858812207      4.55652281291611
  P           1.44470327359827      1.06089884225921     -1.28077041284772
  C           2.09224628599775      0.50156474864216     -2.97293609491879
  C           1.84018287988428      2.91656073360844     -1.03338912077692
  P          -2.30432001694607     -0.06909144388104      1.00165545091881
  C          -3.54913528816892      1.30908369709442      0.80940237817024
  C          -3.64509351758155     -1.26543930795026      1.51641857024965
  C           2.43801135526338      0.17238265624346     -0.06047370756814
  H           2.22512436855299     -1.16411638023551     -0.39558021280317
  H           3.51435058699882      0.32948333624617     -0.08869798557410
  C          -1.58164315040502      0.39477983877176      2.62436948146351
  H          -1.98414171496194     -0.23936227999224      3.42101817777281
  H          -1.89080228836985      1.43417227517084      2.81311740969760
  C          -1.58239173358420      0.30937996121748     -2.00477014752038
  O          -2.25824302760408      0.35616720421265     -2.93733145302919
  H          -1.01385213873933      1.77635407289151     -0.21790365527990
  C           3.59854577297096      0.24765346058742     -2.97159008789396
  C           1.38641938606622     -0.81708715331583     -3.29596490395935
  C           1.69595838170068      1.50713526909080     -4.05357816346018
  H           3.84069041409505     -0.57985599711743     -2.30957820399832
  H           3.91268558989317     -0.02606793007750     -3.97839052766905
  H           4.16713641390315      1.12117336998917     -2.66927733955685
  H           0.30280070185244     -0.68454663108452     -3.29814315840225
  H           1.68828736539398     -1.16165105638851     -4.28452080831781
  H           1.66002524288862     -1.58569436480579     -2.57640235853337
  H           0.64142544210076      1.76324024212224     -3.95396493813212
  H           2.29262861150491      2.41372346849628     -4.01241509161591
  H           1.84472406171732      1.06067731481278     -5.03656200492669
  C           1.64142722085575      3.20973284611570      0.45649801696563
  C           3.27655597601317      3.28822311760810     -1.39570397268579
  C           0.83529521861133      3.76227071082301     -1.81665981945843
  H           2.37794088054865      2.69259294372900      1.06880888262932
  H           1.74849904711244      4.27889284409427      0.63627083139933
  H           0.64216477705774      2.91314069153662      0.77610193428532
  H           3.46233194046465      3.21878133907080     -2.46336131995880
  H           3.46500769326212      4.31875320201975     -1.09475237937935
  H           3.98599010243867      2.65251019929705     -0.86860885945842
  H           1.07643085261938      3.81406705607315     -2.87276042809431
  H          -0.16455779968204      3.34068668898723     -1.70413020890951
  H           0.82425663336492      4.77915042556096     -1.42662242894103
  O          -3.98369867942274     -1.49538730775333      2.64305335866778
  O          -4.19141002950847     -1.73561738650942      0.40930028141195
  C          -5.31800869776735     -2.60034768032334      0.54396570515556
  H          -4.99857123300343     -3.57189078103355      0.92687412733936
  H          -6.04529741826925     -2.16699098450338      1.23263607779687
  H          -5.74275788224815     -2.70542710729572     -0.45091262598685
  O          -3.71173492426565      2.22635661542318      1.56440891541254
  O          -4.17445655761661      1.10061471088756     -0.33363927580026
  C          -5.09570967537248      2.09844354511730     -0.77164588551379
  H          -5.93106597949899      2.17407478502592     -0.07256464289832
  H          -4.59206076206144      3.06432695368461     -0.83486932598502
  H          -5.43996992244082      1.78168197553643     -1.75245602815585
  C           0.51812413776767     -2.40740618448558     -0.34221828841201
  O           1.81098995648602     -2.31925345176246     -0.68253340827998
  C           0.29143396135913     -2.68345561899146      1.13645207434235
  C          -0.98445950309998     -2.84408126435587      1.66448486928010
  C          -1.16412289696582     -3.09830129054247      3.01241161413296
  C          -0.06677857179975     -3.20036119623987      3.85123824993061
  C           1.20783297970366     -3.07179474284278      3.32902030542140
  C           1.38541747371895     -2.82000834457498      1.98083722817846
  C          -0.22010698391696     -3.43846814561167     -1.20770139457112
  H          -1.84267069758052     -2.81190404438191      1.00503213831174
  H          -2.16276604406720     -3.21280132030307      3.40900979969642
  H          -0.20724532647199     -3.39201877269732      4.90482645151685
  H           2.07005455878823     -3.16763959289637      3.97285831007750
  H           2.37720305498980     -2.73492815113480      1.56177295148352
  H           0.14500158769369     -4.43061527653980     -0.94742381894033
  H          -0.00315182909284     -3.25384245139636     -2.25670298882874
  H          -1.29518108870885     -3.39712856631602     -1.05658756013085
