79
Coordinates from ORCA-job TSA2R_3R E -116.548948695570
  Ru         -0.46958702498886      0.60832472035094      0.19723377921528
  H           0.09709400856450     -1.01634693586834     -0.04619075808896
  N           0.75452736719870      0.47272356138515      1.91075759693589
  C           2.09186066895824      0.38255939573181      1.70528219701930
  C           0.26028866687121      0.37353205170641      3.14878416963944
  C           2.95841073057468      0.18576601967945      2.79479728584443
  C           1.07541813485477      0.18930321076962      4.25423768076744
  C           2.45081472502322      0.09516948315660      4.06804420426882
  H           4.01753862785905      0.09986635086609      2.60869786962375
  H           0.63948600483484      0.11321439216237      5.23677242993195
  H           3.10532857687277     -0.05469597262501      4.91331061479968
  P           1.50807018022215      1.36180972040550     -0.74368219164609
  C           2.00391256677123      0.86980408262095     -2.50572809933920
  C           1.96054719396500      3.19287227415262     -0.43468184318750
  P          -2.03632466894683     -0.00537562292447      1.72916094446082
  C          -3.53134199092955      1.10176675652066      1.77997222504670
  C          -2.97761375529327     -1.54382042988748      2.23495549503449
  C           2.57344264412316      0.38270694713122      0.34146666993123
  H           2.32712136573774     -0.92704205926235     -0.01941075871229
  H           3.64728666193052      0.52460260234862      0.23795355187172
  C          -1.23087922182935      0.45038876703338      3.31768301561400
  H          -1.57503787278882     -0.19809248071161      4.13061606231601
  H          -1.53946770108086      1.48340617381701      3.53318401817738
  C          -1.56336285897993      0.77555567058526     -1.27838234287379
  O          -2.29175849864322      0.95478781572714     -2.15330475519387
  H          -0.89006658937278      2.03559481192480      0.59359707798138
  C           3.50296291775468      0.61219362941123     -2.64686562255209
  C           1.26411984071820     -0.43161405610814     -2.82623304797713
  C           1.52371371928588      1.92752322643343     -3.49919688063434
  H           3.79822717034984     -0.24052024554796     -2.04075756518872
  H           3.72472305396162      0.37558462852720     -3.68705155456254
  H           4.10122937906935      1.47239361716165     -2.36402328519708
  H           0.18520607760399     -0.30720893506170     -2.71405879456934
  H           1.46284951319169     -0.72118956957346     -3.85736657175721
  H           1.60145531706398     -1.24318023948118     -2.18598439137843
  H           0.48399013852761      2.18389951287366     -3.29622101272333
  H           2.13003065452127      2.82821766568464     -3.46514619772740
  H           1.58275805008028      1.52918574626067     -4.51174855327411
  C           1.89056899857058      3.40140398863007      1.08063366446577
  C           3.36512725629409      3.57015422815086     -0.89949387598821
  C           0.90340036598889      4.08864826906325     -1.08172446440755
  H           2.66887056399232      2.84343745804475      1.59826953511796
  H           2.02517422316226      4.45734710003267      1.31215915116962
  H           0.91712788464078      3.09397432097420      1.46287860261126
  H           3.45504490298513      3.56100017860463     -1.98182895273083
  H           3.59473175176297      4.57960975298417     -0.55827733823811
  H           4.10832895063791      2.89763951379086     -0.47436611457736
  H           1.04873731618880      4.18849800039827     -2.15192581217613
  H          -0.08961820540070      3.67480286854083     -0.89888379243663
  H           0.94498370309327      5.08543865376037     -0.64478597341229
  O          -2.98853072650680     -2.02052474959382      3.33588982338398
  O          -3.61902922257464     -1.96846644279718      1.16536699363215
  C          -4.42373455027582     -3.14391784184406      1.25553644391830
  H          -3.98206946105931     -3.90448057227943      0.61071025976332
  H          -4.45809043707215     -3.49495583256647      2.28777809298943
  H          -5.42396318836651     -2.89283461901130      0.90457705821927
  O          -3.77638001091388      1.91418770687592      2.62631199838411
  O          -4.22118187993733      0.85874922850302      0.68238595580136
  C          -5.36406146938106      1.67406744383204      0.42561030175203
  H          -6.15461728728324      1.45131913303645      1.14506048497098
  H          -5.09318191764440      2.72798628610968      0.50461811645675
  H          -5.68498000305405      1.43527818869426     -0.58483678685320
  C           0.57443399114385     -2.12677448787072      0.00219879730193
  O           1.88230528364283     -2.08191777174717     -0.29722699724776
  C          -0.23819135481590     -2.94245511856136     -0.98390981465149
  C          -1.55843820964351     -2.63976104925447     -1.28112658474235
  C          -2.28237767191817     -3.44227492034138     -2.14401530078439
  C          -1.69077809882632     -4.55324529499339     -2.72194905204600
  C          -0.37025472596977     -4.85483852321917     -2.43595146421301
  C           0.35178957572936     -4.05491612167793     -1.56955826867950
  C           0.30722740768653     -2.67699870626145      1.41876641764624
  H          -2.02633593078731     -1.76242786405701     -0.84401494182827
  H          -3.30879540428155     -3.19320130668992     -2.37270535367426
  H          -2.25595204331638     -5.17682041253128     -3.39952872712237
  H           0.09905503977295     -5.71598084752232     -2.88905797041515
  H           1.38518500870947     -4.26978984223880     -1.34223418107531
  H           0.58196173542949     -3.73085322001335      1.42947164868470
  H          -0.74427178865372     -2.58686748600464      1.69405311999565
  H           0.92380585461436     -2.16290557632610      2.15465263913906
