19
Coordinates from ORCA-job NEB_reactant E -40.853594626400
  C           1.72726995970228      0.02396233823420     -0.03297010295447
  C           1.11702197529788      0.09224131276494      1.14158705653214
  C           2.03845066073681     -1.26525204810235     -0.71766757473637
  H           2.05291676232171      0.93532669651998     -0.50489474501072
  F           0.87953759415594      1.29017510672864      1.71474950880095
  C          -0.56976785608470     -2.24607021160133      4.97744788595264
  C          -0.34636015141414     -2.00443522720080      3.69194007931389
  C           0.14329457058296     -0.71344100198688      3.14012798299268
  O           0.64571486031863     -0.95346916906141      1.83427094930419
  N          -1.07121735415368     -3.51999799375368      5.41196922928718
  H          -0.40861049094826     -1.54912414831749      5.78564046348760
  H          -0.53621319075719     -2.78583808151120      2.96582509250274
  H           0.92295271086891     -0.27807072241022      3.77909644200461
  H          -0.69256913756900      0.00200163924345      3.09618099779467
  F           3.39549450609748     -1.37540374035620     -0.92941082361928
  H           1.57334922949449     -1.31335214713909     -1.70915478091255
  H           1.73783619928620     -2.12280876177086     -0.11045376836570
  O          -1.30249523198850     -4.36230986182877      4.57428398910789
  O          -1.22750561594782     -3.65683397845091      6.60483211851790
