22
Coordinates from ORCA-job NEB E -56.655808142970
  C           0.48442364150503      0.24613651813444      0.84768664244284
  C          -0.21357365029899     -0.94730218975336      1.08351138274558
  N          -0.22788834152161      1.45170396326491      1.30493850264313
  H           1.53371999002733      0.28929699380635      1.13010882010681
  C           0.58030239147372     -2.21416855202161      1.34516517122002
  C           0.33908621074843      0.41485670491034     -1.04343762561336
  C          -1.04585484959076      0.41899232889096     -1.20271055177492
  C          -1.79094114068212     -0.73966449551068     -0.74315367840395
  O          -1.45844225794660     -1.10216422622764      0.69284533877518
  C           1.12729699792802      1.63659623462990     -1.46764599756032
  H           0.89587483422168     -0.49136579501484     -1.26247571323674
  H          -1.56850232445095      1.34739837011870     -1.36699918854705
  H          -1.53611075113489     -1.66053271865931     -1.27289154806113
  H          -2.86614100968788     -0.58502354348583     -0.72428682667363
  O           0.39518177727309      2.16135378936038      2.04913732111666
  O          -1.37399194933082      1.58366568950152      0.96320190207991
  F          -0.15375934331827     -3.18581303511744      1.87516316205684
  F           1.08613284753812     -2.70224398888361      0.18300939233765
  F           1.62840329209844     -2.00012042529092      2.14439385748151
  F           0.57831302608655      2.77525305394284     -0.99503775425790
  F           2.38636601589331      1.57670435778019     -0.97610096057470
  H           1.20010459316918      1.72644096562474     -2.56442164830242
