22
Coordinates from ORCA-job NEB_reactant E -56.686289657880
  C           2.05963914740248      0.50426552125459     -0.67674199737841
  C           1.58594781400900     -0.58326893087966     -1.31252316325383
  N           1.60350979145877      1.85129637796898     -0.76379845488397
  H           2.89525842916983      0.39568854197050     -0.00035525637434
  C           2.20313502951629     -1.93933784001776     -0.94124765305088
  C           1.46223033703722      2.22676763681898     -4.01016681972323
  C           1.34188470770199      0.91760416571146     -3.86928932793018
  C           0.22506037590545      0.25681445055821     -3.12027580835421
  O           0.70750360034963     -0.79088046905972     -2.27909765947430
  C           2.56402894066725      2.87262477742313     -4.79683606216482
  H           0.77238633709087      2.92495537705073     -3.55812225308500
  H           2.06244379295617      0.24418625642272     -4.31555669709407
  H          -0.43601395684389     -0.26645735732563     -3.81779668463732
  H          -0.34900376731822      0.98975143337920     -2.54303975253335
  O           2.41808650902936      2.71315969318196     -0.53510950184780
  O           0.42861529508157      2.05281597579425     -1.01031974159763
  F           1.26417200740819     -2.86847036471227     -0.77357804272832
  F           3.01718468029380     -2.36624327204067     -1.91343881096181
  F           2.92305891716561     -1.89560929824795      0.18060156295185
  F           3.29344340220610      3.69950667792617     -4.00976276470312
  F           3.42987257067514      1.96232969078017     -5.30074478405020
  H           2.18045603903738      3.47380095604262     -5.63950032712503
