25
Coordinates from ORCA-job NEB E -38.709296834540
  C           0.54179705239611     -0.32864102017003     -0.20962570880646
  C          -0.55784141707432     -0.37964741950820     -1.09265305295706
  C           0.47477267901863     -1.15078429051941      1.05759096664713
  H           1.52531487370259     -0.32815428814436     -0.67296854401470
  C          -0.39660911756410     -0.04172090011764     -2.54581486757268
  C           0.26987198431247      1.47641681116697      0.33671382447120
  C          -1.00944567923816      1.47632908943453      0.91504634007238
  C          -2.09219470349937      1.13023689370729      0.06145657390710
  O          -1.75370744908350     -0.31848819511086     -0.57406112704362
  N           1.39194980135912      1.77445587073030      1.20014771024615
  H           0.42150771296983      1.95872915428991     -0.62596966521810
  H          -1.07782044812991      1.29953305450472      1.97749035692332
  H          -2.18685800974228      1.71275007494685     -0.85322262155855
  H          -3.04916467611221      0.96727951861386      0.54203972913054
  C           1.01327793263216     -2.55323639640093      0.78132934104484
  H          -0.56399646162262     -1.21857543498350      1.38374892992404
  H           1.05949565822523     -0.70057338391838      1.86073698971969
  H           0.42897934267175     -3.03881804569576      0.00292786320645
  H           0.95838908342032     -3.15576525803562      1.68404317814900
  H           2.05172155098678     -2.51098864361972      0.45964021511112
  H          -0.63314105848460      1.01390109189778     -2.70992910968108
  H          -1.09818447213264     -0.62492802752506     -3.13819641226413
  H           0.61504470120009     -0.23459046464033     -2.88786033193691
  O           2.34408308323375      2.31464871780506      0.68106215973688
  O           1.32275803655487      1.46063149129252      2.36632726276345
