25
Coordinates from ORCA-job NEB_reactant E -38.732756928020
  C           1.85704884400668      0.32933739279621     -0.01297219748512
  C           1.38693059740539      1.28049471769349     -0.81475515426133
  C           1.99480139756462      0.19014698615361      1.47501483799627
  H           2.24428168135670     -0.53909185231415     -0.53003587243319
  C           1.38174530522543      1.10993796123937     -2.31067701932394
  C           2.56295460002263      3.65948558636321      2.48811712094049
  C           2.25428647089526      3.31005130547472      1.24435215362436
  C           0.87142468540229      3.10053616023227      0.72369927883651
  O           0.83101070006007      2.51414201313360     -0.54610218745782
  N           3.92592926685860      3.83664474893341      2.88682757817657
  H           1.85503090988897      3.83492284199773      3.28350674506072
  H           3.05624715054118      3.16548772284494      0.52940969231088
  H           0.40167482938974      4.08334727172371      0.57788418427428
  H           0.25214114304815      2.54955030858931      1.44567022067610
  C           3.46770347011800      0.05721290216316      1.87031895380281
  H           1.47317894425613     -0.72525875316090      1.77305454312560
  H           1.54710682133154      1.01063180378873      2.02935226455208
  H           3.91683192005335     -0.79955891512518      1.37390695356633
  H           3.56031227406315     -0.08055411796376      2.94526290982907
  H           4.02876194610641      0.94474172910912      1.58663390819288
  H           2.04675857186547      1.84125587110307     -2.76712937173696
  H           0.37928506652955      1.29218360357830     -2.69202917120565
  H           1.69935733379925      0.11290398689194     -2.59429128483455
  O           4.79813599463517      3.61120150074887      2.07533260342270
  O           4.11406007557627      4.19934722400519      4.02824831035089
