17
Coordinates from ORCA-job NEB E -37.248957011880
  C          -0.88531219079125     -0.71870277212226      0.94927002820080
  C          -0.06392884295062     -0.09386686085380      1.88138231543560
  I          -0.42518341199914     -2.75381451020896      0.56258169365594
  H          -1.95392458252743     -0.55264743155324      0.98583760009985
  Br         -0.83695382048265      1.54102180802054      2.67171542726350
  C          -0.26903783525598      0.35332711693702     -0.61671598092232
  C           1.10832499529986      0.14841019183539     -0.58722312685430
  C           1.83695558546706      0.63934605873504      0.52387647478604
  O           1.19208434538888     -0.15461192923271      1.84845450104119
  C          -1.06532013767965     -0.11127155179507     -1.81354777381089
  H          -0.66248187765677      1.29436907307152     -0.24025602980735
  H           1.51572766249555     -0.67773981988879     -1.15267232219854
  H           1.63786777980674      1.66089430744726      0.83740318859977
  H           2.88072353689282      0.36402880758252      0.59368336256417
  F          -0.59671439228854     -1.26040911564774     -2.33997481536509
  F          -2.36231571381560     -0.32955247498770     -1.49153437083947
  H          -1.05051109990329      0.65121910266098     -2.61228017184891
