17
Coordinates from ORCA-job NEB_product E -37.298084777040
  C           1.83220986134811     -0.56406924160420     -2.46666622522305
  C           0.53558341019342     -1.28876078289412     -2.60463028329417
  I           1.53639617999177      0.68710361618095     -0.71964538727263
  H           2.64715551243416     -1.24176247912023     -2.20750819843462
  Br          0.39110766673813     -2.79765736209964     -1.37453118929610
  C           2.17327024833303      0.28450134459079     -3.69164128326707
  C           3.44786540363424      1.05198021993953     -3.46958530331664
  C           3.52246866774002      2.36777297315474     -3.51456329922178
  O          -0.36009100820653     -1.03593373723331     -3.33556302619595
  C           2.33626834128919     -0.64226672593634     -4.90800758665334
  H           1.35022500515211      0.97114311095610     -3.91657799169928
  H           4.32168423397727      0.44375930028706     -3.27962523108076
  H           2.65960859779354      2.98216266209780     -3.71202504497417
  H           4.45247265690909      2.88293384315622     -3.35312566021534
  F           2.76529704067762      0.05974878303850     -5.97614866419821
  F           3.27645784665411     -1.58774843462200     -4.66267141011884
  H           1.40732033534072     -1.15730708989186     -5.19578421553805
