17
Coordinates from ORCA-job NEB E -41.477983445500
  C           1.00639703493079      0.51998596229117      0.04777425189910
  C           0.07751093173144      1.18057775546005      0.86158097564736
  C           0.94833103019211      0.85913781941402     -1.43078956686964
  H           2.04209996388505      0.48723058470916      0.37530396456227
  I           0.62815034800283      1.40346843053844      2.93215537563451
  C           0.33409178275081     -1.29413445963745      0.23443050438411
  C          -1.01910291143961     -1.17464677897438     -0.08850353435922
  C          -1.82219997434191     -0.31944063958177      0.71605752442290
  O          -1.16144312301641      1.17199717227369      0.59303272666747
  Br          1.42090782392264     -2.44997461840212     -0.83452164423884
  H           0.62149308122570     -1.39309949380576      1.27703488356567
  H          -1.33935018334982     -1.39128189489810     -1.09624335652189
  H          -1.75570064002384     -0.45262968168135      1.79461554692459
  H          -2.83616185812816     -0.15374933596474      0.37422488372959
  F           1.91697162233920      0.25497115373051     -2.12252976920888
  F          -0.20451506781664      0.57169372475442     -2.03702144971786
  F           1.14252013913582      2.17989429977421     -1.59660131652123
