17
Coordinates from ORCA-job NEB_reactant E -41.508998192910
  C           1.68316187339103      0.05971612993526     -0.05013339539006
  C           1.04374758284921     -0.83127167513185      0.71216554865051
  C           2.10122269353852     -0.29786575659291     -1.43909686844214
  H           1.93523265363226      1.04714601921631      0.28794995785581
  I           0.46468196382127     -0.24062332420621      2.66765399143789
  C          -0.06044761693961     -5.38015534831028      0.57877395143176
  C          -0.24427942659980     -4.15398564126321      0.12193140770098
  C          -0.08004683289928     -2.93614837536167      0.97434433668337
  O           0.80355486054344     -2.05770991166035      0.29417555729015
  Br         -0.30462423995902     -6.90799972166679     -0.49138919408101
  H           0.21774540873577     -5.60992284901333      1.59584436695345
  H          -0.51144320262342     -3.96644147861492     -0.90756243351475
  H           0.32964446856923     -3.19760352508048      1.95840433937268
  H          -1.05586370877271     -2.44764785961431      1.11043300148346
  F           3.04121217035392     -1.26029688313880     -1.47563080324241
  F           1.08231854560348     -0.75061571593071     -2.19244172278762
  F           2.61238280675570      0.75812591643426     -2.08222204140208
