17
Coordinates from ORCA-job NEB_product E -41.519958957660
  C           1.65321318754374     -1.63036877728066      0.09657822098128
  C           0.86478649801351     -0.59540952511066      0.86690474044286
  C           1.49676144534535     -1.33770387947955     -1.40268581862510
  H           2.72146757762339     -1.52568966213134      0.32181334269877
  I           1.55014097821919     -0.40305295089788      2.90548364587996
  C           1.18095243110407     -3.03223362000318      0.53219491256491
  C          -0.18075020778875     -3.39800266461171      0.04357449386557
  C          -1.22534789599673     -3.47017934443427      0.84754925729110
  O          -0.04673847803679      0.04476981330949      0.48633839064815
  Br          2.49726887941904     -4.39203156543756     -0.04998116489189
  H           1.21963387387329     -3.07570476791419      1.62518548199812
  H          -0.26897050726326     -3.61766476398851     -1.01045044650758
  H          -1.15222143647416     -3.26767483086348      1.90425971649454
  H          -2.19936855135777     -3.73255190138745      0.47576667253146
  F           2.15821409489777     -2.21301439002920     -2.16104780461394
  F           0.23433366056258     -1.33329297490038     -1.82934279973414
  F           2.00802445031554     -0.12889419483947     -1.67814084102408
