20
Coordinates from ORCA-job NEB E -51.483482712990
  C           0.89061584417789      0.29967668078607     -0.28574109335982
  C          -0.03663969938480      0.84861632020563      0.77472525156274
  C           0.71108809292012      1.08941865705211     -1.57310067287741
  H           1.93002549404499      0.41217219391367      0.04400687152262
  C           0.39212470128134      1.57270397844065      1.81920266482652
  C           0.54007172832915     -1.17261404058340     -0.44467672966008
  C          -0.88118959160510     -1.26115289333125     -0.82328727949977
  C          -1.74360099264790     -0.66531183717741      0.25437514929526
  O          -1.37097953243130      0.65846354461694      0.58044321676561
  Br          1.71962960469901     -2.15828006008887     -1.63608638571736
  H           0.63259054764097     -1.63550611959742      0.60549515307326
  H          -1.21966826734900     -2.23572948506050     -1.16189422993461
  H          -1.59072089651311     -1.30628442106355      1.14610002938955
  H          -2.79976163708625     -0.62295969197066     -0.01458663820256
  Br          0.09501188949019      2.86655310360241     -1.40188949558903
  Br          2.13385097900533      1.00616046883628     -2.80798444042097
  Br         -1.07424478957374     -0.07894728057179     -2.57910059577691
  Cl          0.32226502542664     -1.76505767694207      2.46536166906967
  Cl          2.03791639536183      1.98610910967926      2.04040361042381
  Cl         -0.68838489578625      2.16196944925389      2.99823394510949
