20
Coordinates from ORCA-job NEB_reactant E -51.509534136490
  C           2.06097088849926     -0.24293055192633     -0.23766305201338
  C           1.56680315714784     -1.08131732716880      0.67903953907504
  C           1.43167920501201      0.13880709477033     -1.51544588208501
  H           3.02590116581439      0.20707608557645     -0.04861131663157
  C           2.37101483264052     -1.30437471784920      1.95463408628015
  C           1.10661718730656     -4.86408161881652      1.04686984194191
  C           1.29679069137454     -3.91881348422007      0.14196161404289
  C           0.25024981853233     -2.89743713183477     -0.17930693630927
  O           0.37919398874447     -1.71436158979819      0.63276465089987
  Br          2.43315673895769     -6.11807536290432      1.50097127360099
  H           0.18409482717089     -4.99462568794072      1.59111431542189
  H           2.24425279821520     -3.82285170076022     -0.36960205473900
  H          -0.75146575313228     -3.25479683655831      0.06404241467349
  H           0.29494015053099     -2.64070659485580     -1.24273750276313
  Br          2.02650918885125      1.92619860206089     -2.03863787928250
  Br          2.01903881259469     -1.11540909431224     -2.94792862050360
  Br         -0.51025474096290      0.16019894703526     -1.48036668203658
  Cl          3.84772953541377     -2.23161155091636      1.55123117456551
  Cl          2.86565674478609      0.24803189700403      2.66964866364220
  Cl          1.43612076250268     -2.20591937658509      3.14832235222011
