26
Coordinates from ORCA-job NEB E -42.767146673540
  C          -0.07178294354579     -0.15051191709036      0.93473547588937
  C          -1.20022898011299     -1.01718937962502      1.12047078411615
  O          -0.29249523424559      1.20558753358884      0.86776612230892
  H           0.78867004531399     -0.42098985622500      1.55737254771690
  N          -0.90535241715704     -2.34968052476546      1.54745511372511
  C           0.41563839361201     -0.59529810902221     -0.74750735858571
  C          -0.78023883331634     -0.35653257234700     -1.45673464727685
  C          -1.93075857299763     -1.16523490656782     -1.14482321970139
  O          -2.24069159673925     -0.87140093548422      0.34208117969972
  C           1.67908999825632      0.18063405575295     -1.08801128693280
  H           0.65331888432332     -1.64679344842703     -0.58284901882202
  H          -0.94750393378344      0.61845638536198     -1.88468121867365
  H          -1.77366464832965     -2.24546739735093     -1.16289602284574
  H          -2.84786083004843     -0.88810132614296     -1.65433120252269
  C           0.12430767804527      1.91679558873331      2.01416666627947
  H           1.18550419368498      1.74407492549096      2.22404347003973
  H          -0.46483235915095      1.63156019923464      2.89066578964655
  H          -0.03899907311824      2.96932827185562      1.79220238478858
  O          -1.69751157841157     -3.22735092356539      1.25517023488476
  O           0.12000731182043     -2.52404274193887      2.19556711809802
  C           1.45717217223381      1.58111441106520     -1.64494527118795
  H           2.22715528998320     -0.41460681305086     -1.82408606821349
  H           2.30912018591499      0.23681156450082     -0.19821594790764
  H           1.02001337398467      1.53833668909422     -2.63930284514315
  H           2.41075460186989      2.09835671403626     -1.71854275447082
  H           0.80116887191403      2.15214451288836     -0.99477002490937
