23
Coordinates from ORCA-job NEB_product E -44.459320678790
  C           1.60010373105248     -1.55292168362569      1.57018605327243
  C           2.91789467026601     -1.08591194548732      2.16055375087526
  C           1.79874672857718     -2.29735263058863      0.25032240167493
  H           1.08960935978945     -0.62047066418130      1.28848111480768
  Cl          4.05224443881941     -2.35884235539672      2.55428375454686
  C           0.74401436446659     -2.15470182979608      2.73399284559129
  C          -0.70072862149358     -1.78306774626780      2.53973091800612
  C          -1.40450651424148     -1.12056173995111      3.43759327276366
  O           3.18314000701172      0.04036836002744      2.41940389806978
  C           0.90023837279218     -3.65597596466717      3.04081238415303
  H           1.09674370636579     -1.61626659572364      3.62310592988237
  H          -1.15151178154566     -2.09751657931271      1.61152716294244
  H          -0.97563683028654     -0.79379133625075      4.37108384560632
  H          -2.44186388149429     -0.88038365702802      3.28088945493599
  Cl          2.53697154166982     -3.89715188560307      0.32684325304600
  Cl          0.25837921351202     -2.43845660368479     -0.62651598844793
  Cl          2.88758487286659     -1.26842719176753     -0.75913207324330
  C          -0.04418598978911     -4.57832209913296      2.27647211334639
  H           0.69405505035525     -3.78207847579183      4.10607670662784
  H           1.93255200245463     -3.95882689770796      2.87694979210206
  H          -1.07524933093640     -4.39233365782370      2.56627129265637
  H           0.19447081470473     -5.61185852095092      2.51540545154876
  H           0.04023407508318     -4.45194829928773      1.20296266523561
