23
Coordinates from ORCA-job NEB_reactant E -37.754489053860
  C           1.25571260577665     -0.20839820978022     -0.26334684465775
  C           1.28166219700086     -1.50470919569712      0.10339884409295
  O           0.48906946380903      0.32327660401748     -1.25515202016413
  H           1.90460857127585      0.47787116320279      0.26835155820222
  C           2.15420786316695     -1.81993167479872      1.17769964495627
  C           1.13432044776968     -3.48294374111242     -3.48896141984300
  C           0.83136133868609     -2.41152153661205     -2.76523058379747
  C          -0.10351718172724     -2.48136887955337     -1.59652668767288
  O           0.58723132288068     -2.58230888459587     -0.35489488843169
  O           1.96693748851419     -3.57798685775972     -4.54645629564859
  H           0.68907487670321     -4.44788535683716     -3.28465551167488
  H           1.27617791452528     -1.44785482672045     -2.95569327571983
  H          -0.69803388743738     -3.39700391781886     -1.63414125540126
  H          -0.76770592458268     -1.61141495365745     -1.58522977585824
  C           0.73400586282358      1.67986887296093     -1.54350151503633
  H           0.02982446769773      1.95624443076898     -2.32611908844067
  H           1.75733818540145      1.83255324180829     -1.90190384131186
  H           0.56555611231470      2.30800089142547     -0.66325269594034
  N           2.86366709090618     -2.05282655965724      2.04779353690742
  C           2.65463066312557     -2.41445702176630     -4.94355322943486
  H           3.27140347588190     -2.70344580644662     -5.79244632401561
  H           3.29345635419429     -2.03904599919246     -4.13805689861601
  H           1.95701069129341     -1.62801178217791     -5.24822143249347
