20
Coordinates from ORCA-job NEB E -40.007149808470
  C           0.42240985335087      0.80575474285077      0.49401626509069
  C          -0.82815585583236      0.19356057636108      0.60769533435449
  C           0.50234173390721      2.02561750943864     -0.39474098968011
  H           0.99057140168508      0.93287874558824      1.41185081605123
  C          -1.18885368928513     -0.50970079740852      1.87667928274574
  C           1.43489140846483     -0.53606180963154     -0.55264936446900
  C           0.50379759892597     -1.45886417476683     -1.00103559481272
  C          -0.68747840752638     -0.93016410179842     -1.60993231181692
  O          -1.47777181440529     -0.20835662094177     -0.45628713471816
  H           2.21201111774610     -0.88851257156858      0.11185036834288
  H           1.77375769942587      0.21203315769403     -1.25328445321939
  H           0.41338445161651     -2.40917819019740     -0.49128836452291
  H          -1.41789192837072     -1.65440769321821     -1.95719509895516
  H          -0.52394524396223     -0.14089602441236     -2.34266847655663
  F           1.79834966349188      2.37299817060604     -0.66303951195834
  H           0.05744684295909      2.87926750482150      0.13262863549827
  H          -0.00530262376806      1.88264960918648     -1.35315207377821
  Br         -1.22935687137720      0.73833179230921      3.36793431646239
  Br         -2.90505907481262     -1.37092108374626      1.71079208716508
  Br          0.15485373776657     -1.93602874116610      2.36182626877680
