20
Coordinates from ORCA-job NEB_product E -40.053316865370
  C           2.53122627228371     -1.36841870666534     -0.18708760337502
  C           1.20474783256057     -1.90605426283953      0.25901953799935
  C           2.28346750630325     -0.10783789052424     -1.02450065762962
  H           3.16664865312421     -1.10589153703626      0.66466701861479
  C           1.09273950239420     -2.28081446894711      1.73608744793898
  C           3.27573144359700     -2.43446187537108     -1.03674580019122
  C           2.47812412186651     -2.91388218242704     -2.20930085244446
  C           2.74097167174668     -2.56884261397370     -3.45625945564315
  O           0.24048713514259     -2.02456080335612     -0.44186353375616
  H           3.53837929885855     -3.27891196563682     -0.39528866797550
  H           4.19819532615897     -1.96609980937502     -1.38440854361154
  H           1.64730848278291     -3.56994350325913     -1.98785058452938
  H           2.15246311691767     -2.93031481126477     -4.28153431345215
  H           3.56215166553754     -1.91500296692271     -3.70213163141719
  F           3.48064847092197      0.43739258625572     -1.39478494970818
  H           1.75018921965088      0.65488688026039     -0.44687025336968
  H           1.73309703828066     -0.35086880018423     -1.93810903295739
  Br          1.09692277643023     -0.56796923321127      2.69401680758472
  Br         -0.57397027823143     -3.20046106808783      2.06404480321767
  Br          2.57187074367335     -3.36384296743392      2.36100026470515
