18
Coordinates from ORCA-job NEB_product E -41.877625435960
  C           1.09583094560816     -1.58963428746413      0.50260918492569
  C           2.35702883914711     -1.41975231518871      1.36470537450848
  C           1.43616856793963     -1.19249608311509     -0.93575781262907
  H           0.33760711371341     -0.87034880346360      0.83966292331212
  C           2.14140089076904     -0.49987382938163      2.46324539693304
  C           0.48486865726973     -2.98962471012203      0.72769885812842
  C          -0.60646516078839     -3.32563724768492     -0.23212786469154
  C          -1.87395349731849     -3.40992856704889      0.12829712754596
  O           3.37924468575622     -2.01466197548935      1.17649297196535
  I           1.91271367310095     -4.63553535450224      0.71322508636570
  H           0.09411335798796     -2.99400844375541      1.74863619989437
  H          -0.30082157977821     -3.53617882834588     -1.24601654286159
  H          -2.19608829736985     -3.22000978463266      1.13938500698947
  H          -2.64159315434202     -3.67091492239558     -0.57818496108545
  Cl         -0.05122791411444     -0.82711775420507     -1.85247658885248
  Cl          2.38311329158579      0.34355775500250     -0.84779698302321
  Cl          2.38550842334997     -2.38115241251849     -1.81677220810461
  N           1.92775115748342      0.21961756431119      3.32677483067934
