18
Coordinates from ORCA-job NEB_reactant E -41.885866407340
  C           1.55191794194962      0.07619299572962     -0.03254793573677
  C           0.92408026220513     -0.82175699081957      0.75326895333081
  C           1.97140249900797     -0.24589249620878     -1.41657836894505
  H           1.76426851771266      1.06379462248640      0.34065632915745
  C           0.55873899588843     -0.42806591838721      2.07296444387439
  C           0.15753496804737     -5.40558229870588      0.96981578773766
  C          -0.21480167139188     -4.23890888503096      0.48143630862641
  C          -0.01664300700956     -2.94863556408649      1.21399548645193
  O           0.64294979591935     -2.06061336990423      0.32106889206678
  I          -0.14227698758816     -7.21669325267862     -0.04092232021228
  H           0.62356433940949     -5.52483261256853      1.93385687117718
  H          -0.67036325769591     -4.14492315658000     -0.49308104577348
  H           0.58084208595521     -3.09651595190926      2.12273442453085
  H          -0.99316847457999     -2.53069607130945      1.50138564361655
  Cl          0.55910480010985     -0.69897056649265     -2.41776867964799
  Cl          2.76847279635234      1.14408412479890     -2.17149282394970
  Cl          3.11021170223085     -1.62757936796111     -1.43032636759475
  N           0.26686469347722     -0.12950524037219      3.13943440129002
