17
Coordinates from ORCA-job NEB E -41.948106373480
  C           1.02333776540611      0.10755495048945      0.49646166616796
  C           0.16437674479877     -0.61892257373449      1.33544737429340
  C           0.87695496456465      1.61546664582323      0.54392649214839
  H           2.07409888808676     -0.16760892412500      0.49357834797640
  Cl          0.73349056761860     -2.21074378588068      1.82345711056905
  C           0.31373069875985     -0.50284377645312     -1.21512896831954
  C          -1.05070243013443     -0.23991551153170     -1.11819265828492
  C          -1.77677728516952     -0.90213957959125     -0.08889977261007
  O          -1.09120448180145     -0.42710084661641      1.32349712476510
  I           1.41087719671465      0.39744557587986     -2.79210513849070
  H           0.65545233893976     -1.52200820714143     -1.07648158482617
  H          -1.45017825280445      0.67573274260502     -1.52614354590523
  H          -1.63178517735452     -1.97634710342201      0.00072656328407
  H          -2.80828568086634     -0.59998060621780      0.04142232074196
  F           1.81408333880321      2.23110872063416     -0.18353243730050
  F          -0.30171292147553      2.08801091446539      0.13750399738520
  F           1.04424372591386      2.05229136481678      1.80446310840559
