17
Coordinates from ORCA-job NEB_reactant E -41.980994258960
  C           1.68577665437363      0.04929405578595      0.07271850813377
  C           1.02590271182547     -0.87728869814565     -0.63320792981603
  C           2.10325029973677      1.33334074763414     -0.56166208491566
  H           1.94315029195431     -0.08736024046077      1.10576361775641
  Cl          0.55609363956897     -2.35118557764254      0.13315114518998
  C           0.02338218539493     -1.82192014697630     -5.10277775750148
  C          -0.23985902969670     -1.13952404627048     -4.00546038187574
  C          -0.00678909473048     -1.68666194543448     -2.63185559680059
  O           0.72137607529583     -0.70038687871601     -1.90677659318998
  I          -0.34382261359430     -1.07857495231495     -7.02680029285691
  H           0.42465021515151     -2.82178080380527     -5.09993649122795
  H          -0.63069080246382     -0.13357005552656     -4.03535086070491
  H           0.55801882817679     -2.62551174738555     -2.66673171989370
  H          -0.97009045979409     -1.86917825519900     -2.13536010331964
  F           2.97024124605983      1.16444612992236     -1.57695150496643
  F           1.07231716071588      2.02980702042277     -1.07366379118720
  F           2.70549269202544      2.13995539411236      0.32050183717607
