17
Coordinates from ORCA-job NEB_product E -41.991698654780
  C           1.66161025131616     -0.43927802008431     -1.57310139025495
  C           0.88241353552700     -0.95436977956329     -0.37145038596681
  C           1.44038786638974      1.07495354757886     -1.67285854211055
  H           2.73456441676867     -0.58455800397120     -1.41396516367972
  Cl          1.91449510477555     -1.75342687261335      0.79769899344767
  C           1.18346721746091     -1.24009538790470     -2.79877487904082
  C          -0.14245896887226     -0.82260442446581     -3.32704155358666
  C          -1.19358536303046     -1.62221887842277     -3.32741109646032
  O          -0.28822890899919     -0.88895076241201     -0.21588557366036
  I           2.67875835505689     -1.14470326461398     -4.38822854200396
  H           1.16597260626664     -2.29568519583091     -2.51979439496277
  H          -0.20554007272038      0.17602840246280     -3.73479025545348
  H          -1.14990758108506     -2.62462673660437     -2.93400434460084
  H          -2.14351694716359     -1.29795958868727     -3.71253056838776
  F           1.94439969600674      1.59518760224352     -2.79435304115331
  F           0.16125625126511      1.44437648321754     -1.61825536625795
  F           2.06131254103753      1.68783087967125     -0.65375389586740
