17
Coordinates from ORCA-job NEB E -26.695475282710
  C           0.69764996758408      1.15920213730621      0.05166020117844
  C          -0.49608385279139      1.34425032699162      0.79125259249296
  N           0.68366079836297      1.31841745144864     -1.30740808015440
  H           1.64292970672265      1.40610171133524      0.52167343403199
  H          -0.38774206177450      1.50916150905036      1.87065369747822
  C           0.59665151423002     -0.88237226208666      0.42821246075622
  C          -0.61554703338570     -1.22476647931594     -0.19440486260765
  C          -1.80863932911715     -0.85858496967908      0.40067526632696
  O          -1.61319389867212      1.00507463428721      0.31563399823062
  C           1.81542716551306     -1.22606429580361     -0.19579325355701
  H           0.64120716997870     -0.85806543283550      1.51075731183259
  H          -0.59635512122735     -1.44092505992075     -1.25456402294185
  H          -1.89590824453754     -0.86739849411653      1.47679753720513
  H          -2.73473877168592     -0.99375531036044     -0.13332373205998
  H           1.48224361982303      0.97674291251629     -1.82004970963869
  H          -0.21038984175780      1.11881617367223     -1.73575923076272
  N           2.79882821273496     -1.48583455248927     -0.72601360781084
