17
Coordinates from ORCA-job NEB_product E -26.724708149210
  C           2.37918770822944     -1.49739554152792      0.71730759776642
  C           1.22157933499822     -0.86324212502036      1.46114104185987
  N           2.57362120449151     -0.82700059310722     -0.54254289562293
  H           3.27124152358480     -1.30303450814126      1.33279230207026
  H           0.99639377962957      0.15630518874441      1.10045987192421
  C           2.17172135122742     -3.05158801125028      0.66458408315150
  C           1.04250856250500     -3.42821538909980     -0.25737131041873
  C          -0.14517735735272     -3.80889849562680      0.17205500571246
  O           0.60988780138628     -1.37756868569768      2.35188668100075
  C           3.39551040418353     -3.67062201365471      0.22209490518872
  H           1.94466839780918     -3.38073847575560      1.68463492604385
  H           1.25945289019510     -3.36693705750825     -1.31662548680246
  H          -0.37359100887263     -3.87780769589228      1.22258664199784
  H          -0.93912863426728     -4.05745515985539     -0.51100083396169
  H           3.41010910690097     -1.15447176589266     -1.01126392594990
  H           1.78195257413788     -0.96114939164253     -1.16108649015358
  N           4.36936236121373     -4.12378027907165     -0.17055211380656
