17
Coordinates from ORCA-job NEB_reactant E -26.722587667480
  C           1.55161432539731     -0.27527766122183     -0.10156176152550
  C           1.07852923793468     -0.39870219356057      1.13683531385692
  N           1.86394133703320     -1.25798920678854     -1.04938159265597
  H           1.63684004959745      0.73419027312892     -0.47677700600195
  H           0.85682761714227      0.49244945679183      1.70373862108676
  C           2.13931634090118     -4.52668245591757      0.34504786490457
  C           1.95923949130630     -3.48749130145489      1.16204141097903
  C           0.65854865752855     -2.75945705426685      1.31920618192552
  O           0.79838890060985     -1.49667820777250      1.92052592571782
  C           3.37225971113929     -5.19716204534862      0.24008789639998
  H           1.34309474312223     -4.90425799112896     -0.28425668483938
  H           2.76886115599979     -3.12876090206372      1.78522787144665
  H           0.02765497540535     -3.33174515545666      2.01466905647577
  H           0.12727556755095     -2.68528595176272      0.36141190780896
  H           2.47270162933255     -0.91451688513923     -1.77737797166883
  H           2.21469591133481     -2.12382615617178     -0.66295894890395
  N           4.37621034866422     -5.74290656186632      0.14232191499359
