20
Coordinates from ORCA-job NEB E -41.061887048890
  C          -0.05321375598374     -1.19115770545389     -0.30034459568379
  C          -1.37221013512021     -1.01071267541900     -0.71124972609444
  C           0.19005449092565     -1.59727362612961      1.14366161256799
  H           0.60199441239324     -1.75862629717049     -0.95451836397873
  I          -1.72486806144298     -1.25190275233759     -2.84138284311930
  C           0.57322259456251      0.67948763090682     -0.47743628764612
  C          -0.38981851472683      1.37181928865918      0.25388654333805
  C          -1.74862775033203      1.31817309983052     -0.16712741638110
  O          -2.17796291120871     -0.25384825664099     -0.08953013546480
  C           2.02121039157206      0.75130706826773     -0.05543723125080
  H           0.48622895203847      0.67530920342925     -1.56111624282886
  H          -0.17992641868486      1.60647324643529      1.28650384267758
  H          -1.94153097253984      1.50840385592024     -1.22187575914535
  H          -2.47587608279594      1.78655335519141      0.48385241721189
  F           1.51330320234097     -1.77288154048120      1.36382566376634
  F          -0.24793777461636     -0.71250688036349      2.05574633043436
  H          -0.30121364968122     -2.56279475774976      1.36099155977860
  F           2.15573131930608      0.99577912248782      1.28136080595590
  H           2.50214065176243      1.58934863103666     -0.57711372228813
  H           2.56930001223130     -0.17095001041890     -0.27269645184928
