20
Coordinates from ORCA-job NEB E -47.588559745480
  C           0.45275087762374      0.89833802336493     -0.23551828316281
  C           0.50358615913437      0.30991668506669      1.03981827846443
  N           1.58138336944542      0.53038279976030     -1.09867988352173
  H           0.24801515957676      1.96343871606807     -0.31109243247308
  C           0.01505274799513      1.01764284115471      2.24971429588008
  C          -0.93710650689186     -0.06927021710509     -1.10109509097527
  C          -0.48275438792346     -1.38626838786835     -0.95902301317877
  C          -0.25022248650448     -1.89024675546709      0.38470390532322
  O           0.66822715738156     -0.99066048561118      1.17090402020986
  C          -1.06496588148321      0.44092324079784     -2.43022786579486
  H          -1.72251950629270      0.29224139700879     -0.43912649704957
  H          -0.08259180966467     -1.92213308453892     -1.80381159281557
  H           0.25272241158008     -2.85346599194022      0.40721787160135
  H          -1.15511083246412     -1.90793452000487      1.00067566919761
  O           2.18229989987671      1.45216872526065     -1.58766785472198
  O           1.83872027320323     -0.64300035360504     -1.20312224949841
  Br          0.47392002253366      2.89654136455822      2.31012967833926
  Br         -2.03467425332537      0.88920246175662      2.25076489265242
  Br          0.62852025362147      0.12728284761187      3.85349258678486
  N          -1.11525266742229      0.84490069373207     -3.49805643526102
