20
Coordinates from ORCA-job NEB_reactant E -47.615931496040
  C           1.19641777737175      0.01579593464785      0.35513482396342
  C           1.61891985565514     -1.26046289715063      0.46375211415540
  N           0.84730867341114      0.71210440102122     -0.83336681635051
  H           1.09877379031512      0.63015854393779      1.23880103876636
  C           2.06620182250629     -1.75732282854907      1.82283889194561
  C           0.77018764725733     -3.98085996130712     -3.40893524344054
  C           0.88419485485027     -3.67353504894171     -2.11930356364874
  C           0.88796574980027     -2.26923500668244     -1.61102880239993
  O           1.63692842881655     -2.25915189681983     -0.40049972775019
  C           0.73318641598582     -5.31429909443619     -3.86488982728419
  H           0.68812687737579     -3.22180879585827     -4.17638811210384
  H           0.97451634446816     -4.44542956323354     -1.36741185799082
  H          -0.14037674047305     -1.93778424668771     -1.39909946117734
  H           1.32528248237375     -1.57672682636427     -2.34236529086496
  O           0.03787877930330      1.60417582377138     -0.72401203387132
  O           1.40973413430375      0.40032872597678     -1.86798951689358
  Br          3.12865947289843     -0.45637510917964      2.79204106420249
  Br          0.44529459298969     -2.16371450740702      2.87259545423180
  Br          3.09895742968511     -3.38300501681887      1.64764852825917
  N           0.69994161110539     -6.39245262991868     -4.25092166174829
