20
Coordinates from ORCA-job NEB_product E -46.231790523440
  C           2.39909081025902      2.66975256575247     -0.20515032908835
  C           1.17550197588828      2.99461226729121     -1.05449361369085
  F           2.38281353719136      1.31924281390610      0.06168560175169
  H           3.30188182110850      2.85411035331255     -0.80898940727909
  C           0.84897648671503      1.88539176777490     -2.07511714976990
  C           2.46392428141738      3.45670899846739      1.11363249375131
  C           3.55646053738233      2.89840616770820      1.98818618246041
  C           3.34616502178211      2.41285252305715      3.19504663956202
  O           0.51675221122843      3.98583800552052     -0.94874748402995
  C           2.74161110695113      4.93906261517444      0.82140624533258
  H           1.50025400251001      3.39238294963302      1.62820331247990
  H           4.54757699566928      2.93398897217557      1.55853195029655
  H           2.36252450635272      2.37721387541409      3.63315794952784
  H           4.15270745193248      2.03046756987494      3.79483647226056
  F          -0.02778095800937      2.32536062509494     -2.99245943522621
  F           1.96664074178217      1.50783839435643     -2.73339498568083
  H           0.42484696361843      0.99864971005660     -1.57305313754324
  F           2.91338784983604      5.61368069084506      1.97804669933979
  F           3.89549921330715      5.07608332098359      0.12169189932327
  H           1.94146544307753      5.43505581360084      0.25388009622247
