21
Coordinates from ORCA-job NEB E -33.472601416440
  C          -0.19859796133440      0.55175318283062     -0.61071770840144
  C           0.28640885351614      0.87890396235124      0.66024155902312
  O           0.63359943143613     -0.09104414767820     -1.52843794543780
  H          -0.90459902932678      1.24836771597430     -1.06903679386723
  N          -0.40669700916122      1.79456121881484      1.42346047972712
  C          -1.27645446124224     -1.14636802740253     -0.13477768481144
  C          -0.85703976802892     -1.50236062549067      1.14489947088416
  C           0.53033725211001     -1.53637667284524      1.37517775796087
  O           1.08745055147093      0.09200182859136      1.28813112794284
  O          -2.59459938555482     -0.83987473832076     -0.31117175596518
  H          -0.78361466327525     -1.62258006828390     -0.97732141267485
  H          -1.51397335143472     -1.23951359757631      1.96235614714543
  H           1.14394318847392     -1.94730526362246      0.58226915880558
  H           0.87773354133195     -1.77941354781595      2.36919000655057
  C           1.71307314084943      0.70436308217935     -1.96841404900919
  H           2.25213667428025      0.10778344559363     -2.70241663146377
  H           2.38189833274769      0.95951810227368     -1.14033298199799
  H           1.35778366433299      1.62951648305019     -2.43947618165583
  H          -0.05387063038922      1.95358430742229      2.35187980441630
  H          -0.87743985802549      2.55897602723522      0.97449109170035
  H          -2.79747851277635     -0.77449266728069     -1.24999345887163
