21
Coordinates from ORCA-job NEB_product E -33.533123611930
  C           0.49497542389909     -1.30773642918782     -0.44426243305426
  C           0.85419786220824     -0.37581705512565      0.72573468997955
  O           1.58563525698702     -2.03307340029643     -0.94581585776341
  H           0.04513967562421     -0.68622447071430     -1.24033771465999
  N          -0.18936096189185      0.39198531360307      1.11046937193430
  C          -0.56172500013297     -2.34788407361156     -0.00523164247002
  C          -0.14694289107993     -3.00355498491746      1.28104850177171
  C           0.47106243718894     -4.16652618855266      1.34120307285206
  O           1.95327613377593     -0.30173984829664      1.22405258241683
  O          -1.80682786952820     -1.67626566902232      0.10920491934954
  H          -0.60800554916862     -3.10020596030261     -0.80632245023603
  H          -0.37026919793743     -2.43653575640556      2.17513089911367
  H           0.70922951982637     -4.72115068049778      0.44962539821054
  H           0.78436917740776     -4.59436992850984      2.27749611633405
  C           2.56446834861170     -1.24295112157076     -1.58490377132954
  H           3.29910953410869     -1.94227617316739     -1.97838348939577
  H           3.04876053231351     -0.55934540023509     -0.88452079667678
  H           2.12409656742455     -0.66854896056969     -2.41029278431243
  H          -0.07819596729847      0.97484010500096      1.92449877185692
  H          -1.11767024718972      0.16685357107215      0.78928984994114
  H          -2.46212278514884     -2.30937288869260      0.42231676613790
