15
Coordinates from ORCA-job NEB E -27.455264695880
  C           0.56636295742738      0.81239704591426      0.17306482330746
  C          -0.08719906863342      0.39261428661328      1.45295789349875
  F           1.89462321949495      0.43025443676104      0.16142055765810
  H           0.57748365789901      1.89548060240137      0.01140190327301
  C           0.30793611360724      0.81944586674221      2.69543239391847
  C           0.50603293886074     -0.54588822979757     -1.98326675220106
  C          -0.28770899320813      0.06404039748947     -0.91258091689551
  C          -1.08138722599134     -0.95481085224098     -0.07302787256950
  O          -1.03837134169450     -0.54619427603802      1.28053238518874
  H           0.74907651559734      0.01838307305266     -2.86089174382310
  H           1.00078418110497     -1.48311729772990     -1.82089482086838
  H          -0.97131539142276      0.81280265246344     -1.32508220084266
  H          -0.64220742425704     -1.95802343054550     -0.14271998781828
  H          -2.12913697122905     -1.00979159405373     -0.37561171943221
  N           0.63502683244463      1.25240731896798      3.71926605760618
