15
Coordinates from ORCA-job NEB_reactant E -27.511889946790
  C           1.43820703215029     -0.21052279548829     -0.01868196860762
  C           1.31436625313206     -1.45445978289142      0.46716468709052
  F           1.01641761575056      0.19418953759464     -1.23088278675334
  H           1.91096794665107      0.58135509251103      0.54001404191925
  C           1.84621941289603     -1.64263720041533      1.77932672865139
  C           1.44919238590697     -3.59650814261386     -3.30731244709323
  C           1.36293787801268     -2.65210843230032     -2.39110969583655
  C           0.26405450230844     -2.58166877514241     -1.37199357127045
  O           0.75852171242618     -2.57392675891528     -0.03686457399243
  H           2.24465431238008     -3.61111186265087     -4.03188713893330
  H           0.72114963741599     -4.38773367242601     -3.37740350768985
  H           2.10395009814407     -1.86668511297456     -2.33620335086611
  H          -0.35782802743206     -3.47873546112607     -1.42006025904693
  H          -0.36730820653136     -1.70279265793641     -1.55166851737892
  N           2.26859744678900     -1.78585397522483      2.83286235980759
