20
Coordinates from ORCA-job NEB_product E -47.557198969620
  C           0.66093876992183     -0.45886490343565      1.27130224376266
  C           1.93153774718198     -0.47550472660941      2.12381451421547
  C           0.81016354169605     -0.46653046440157     -0.24447836433419
  H           0.18800735506668      0.50717395087840      1.50417982392758
  C           3.15509876029663     -1.32161664669527      1.68969027729075
  C          -0.28446198650253     -1.56522197222666      1.80147749198672
  C           0.32312346329522     -2.90681564640062      2.01609664078902
  C          -0.10469102650297     -3.99734830930300      1.40366154978774
  O           1.94500556710218      0.09065472183435      3.17536137795108
  I          -1.14405659386461     -0.90660573998264      3.70324775734993
  H          -1.14526558379990     -1.64501059559504      1.13433095480065
  H           1.09805453898167     -2.96139955228289      2.76939544910478
  H           0.33026734043797     -4.96055685668268      1.60133332802916
  H          -0.89687681032958     -3.96814188750572      0.67368199620023
  Br         -0.95931690604988     -0.18973493167498     -1.06558819976118
  Br          1.91105419583708      1.05804519473190     -0.81176471654003
  Br          1.51690478715804     -2.10638641705918     -1.01762663204089
  F           3.75750063653905     -0.79952553634260      0.59921535194829
  F           4.05821484093038     -1.31045685949962      2.68221953911504
  H           2.89659736260470     -2.37045282174712      1.46764961641718
