14
Coordinates from ORCA-job NEB E -29.463661535920
  C          -0.86809269175252     -0.53768017683299     -0.73327796953629
  C           0.20675414910102     -1.45206430028693     -0.46227337817513
  Br         -0.45769639521524      0.54092213068762     -2.37322867001651
  H          -1.81459345566220     -1.03087263869798     -0.94465690395134
  Br         -0.14149831574714     -3.25665381108558     -0.04644085342701
  C          -0.98983182455609      0.44980238220117      0.48570629568528
  C           0.30562178351410      0.96928265880250      0.81287397984362
  C           1.53679223753750      0.29793190117875      0.34333972427457
  O           1.41769475880591     -1.03022684814237     -0.10204555174630
  Br         -2.34223785510947      1.96560486666408      0.05039081664716
  H          -1.54767627939888     -0.07516060875853      1.25946761249981
  H           0.41938680993608      2.02272406442743      1.00797801109720
  H           2.27327978782188      0.23158523268026      1.15314846030979
  H           2.00209729072503      0.90480514716257     -0.45098157350486
