14
Coordinates from ORCA-job NEB_product E -29.527651204990
  C           1.81187826899075      2.13120687195469      0.21137717675523
  C           0.48944322281893      2.43444671138679     -0.43229625070019
  Br          1.65276114997763      0.23104603203528      0.73033712933207
  H           2.63824544538527      2.17800565295838     -0.50051731162273
  Br          0.45632362818091      1.92252796343852     -2.31233110832964
  C           2.06492403004037      2.97677939080820      1.44514857268371
  C           3.29162788385522      2.57490451527955      2.18480855977546
  C           3.30697321778471      2.34197366486745      3.48448666654338
  O          -0.47419659714573      2.87776654386414      0.08587155614364
  Br          2.27639852505395      4.84718138997567      0.78759301872617
  H           1.18510052905725      2.99307173202037      2.09265219626783
  H           4.19011396779878      2.49626673230191      1.58779156499463
  H           2.41930757866189      2.42618084796660      4.08961889518477
  H           4.20979914954006      2.05054195114243      3.99065933424565
