19
Coordinates from ORCA-job NEB E -33.161803595960
  C           0.46842546657150      0.91336076605184      0.25842545365812
  C          -0.77544127050776      0.48312005543800      0.75337202495393
  C           0.48615942333413      1.57422178735929     -1.09574563920471
  H           1.13338749184663      1.39064053088308      0.97244277892691
  N          -0.97098213418712      0.33608109025015      2.10883662748823
  C           1.21450025354210     -0.86205956945019     -0.08490445225777
  C           0.30122877626820     -1.47112136307293     -0.93777956606594
  C          -1.02865991573360     -1.61222115629920     -0.41932963831575
  O          -1.58766767269981     -0.16755199094206     -0.03620578271109
  Br          3.00005852927129     -0.58866986068435     -0.71979861171992
  H           1.25230075870837     -1.17022714398313      0.95412106146789
  H           0.43324858487157     -1.37161161568691     -2.00412761939619
  H          -1.09817849453677     -2.12462113523559      0.53963555748774
  H          -1.76761744931409     -1.97293772853810     -1.12559432932436
  F           0.11994688852873      2.89671348478831     -0.95459531435264
  H          -0.24418660123848      1.11731114317761     -1.76959535262048
  H           1.48343465938328      1.58299526612558     -1.54494707057925
  H          -1.89659280143718      0.04830380902678      2.38553875716562
  H          -0.52336449267098      0.99827363079182      2.72025111539966
