19
Coordinates from ORCA-job NEB_reactant E -33.183365645520
  C           1.56839454369524      0.09925040095545     -0.05856013339244
  C           1.67948146459100     -1.00983077193795      0.68432030401552
  C           1.09130040650218      0.08759101083831     -1.46888658680032
  H           1.87565440994075      1.04442336496843      0.35717484462835
  N           2.17589026587615     -1.03145181189065      1.97296848132231
  C           3.82364087261544     -4.62505354880690      0.26893073402644
  C           3.46096089643260     -3.35993312444281      0.17381073502524
  C           2.26237050435143     -2.90771348228921     -0.60605548018527
  O           1.31101928506980     -2.25361189386139      0.22718510374584
  Br          5.33370492154269     -5.18253230269280      1.26151976742058
  H           3.31225120105567     -5.44107427217532     -0.21662446067743
  H           4.00590739578513     -2.58030900096669      0.68795456936573
  H           1.72838480898580     -3.75827083979555     -1.03582982189846
  H           2.59120782236379     -2.23847640684709     -1.41080109819237
  F           2.15288392191980     -0.00614831025260     -2.36708247310183
  H           0.57065522655923      1.01452573032443     -1.72464612325318
  H           0.45168485558440     -0.77742023124126     -1.67024700882972
  H           1.89490411502374     -1.83528567133999      2.51389231693824
  H           2.15080308210517     -0.15897883854641      2.47537632984277
