19
Coordinates from ORCA-job NEB_product E -33.213434323290
  C           2.71543282322800     -0.96843456106008      0.19394963932132
  C           1.39429667521659     -1.07598108752186      0.96609586532462
  C           2.44086529861696     -0.20505463266275     -1.10125497738591
  H           3.44539561839417     -0.41605784230346      0.79410044476063
  N           1.55088691611162     -1.18107284448967      2.30307048744282
  C           3.22764689649555     -2.40379500939336     -0.02425727396127
  C           2.64014994110445     -3.08987152524673     -1.20742204179356
  C           1.81952150217833     -4.11878807945303     -1.10807779615626
  O           0.31411389768879     -1.10185151998104      0.42730309004411
  Br          5.20877760707022     -2.39632309234315     -0.20764463327627
  H           3.05403483378393     -2.98896445952102      0.88311115991726
  H           2.94171918437156     -2.70501682599142     -2.17131920068003
  H           1.51913812243948     -4.52041430157921     -0.15391992327494
  H           1.40455380967198     -4.59371166859264     -1.97944371627693
  F           3.54728946012474     -0.16285433067701     -1.90504824421345
  H           2.16758477212382      0.83070437507004     -0.87578837192671
  H           1.63404896901120     -0.68255392892755     -1.66484385656170
  H           0.72864491407119     -1.26311024170046      2.87884117233322
  H           2.44709875829743     -1.12124842362558      2.75304817636303
