16
Coordinates from ORCA-job NEB E -37.006412431880
  C           1.13595277668546     -0.03062083034510      0.54031185667300
  C           0.48509100074491     -1.26506513286968      0.68193617176140
  N           0.73811387282919      1.03039433746994      1.45493065858471
  H           2.20887688529358     -0.03548332250094      0.37130670771949
  F           1.22954775483256     -2.34511273225504      0.30147430132408
  C           0.26751043886264      0.57954541085003     -1.14979818105310
  C          -1.08337849981974      0.47031762899871     -0.82989790408177
  C          -1.61325900939647     -0.81061523436990     -0.58790936835647
  O          -0.74356979224962     -1.42641556529679      0.78995518591859
  Br          0.99865574576774      2.31012624036674     -1.49866772223530
  H           0.74276581654265     -0.16858137654366     -1.77361061101612
  H          -1.60322871542064      1.33306944756348     -0.44158873807157
  H          -1.33949400446196     -1.61915760552738     -1.25598239337809
  H          -2.62648995125032     -0.86638066560122     -0.21695371585944
  O           1.64097464439324      1.66393255572314      1.94276656030616
  O          -0.43806896335322      1.18004684433766      1.67172719176441
