16
Coordinates from ORCA-job NEB_reactant E -37.041741973720
  C           1.88848380232063      0.03549032574722     -0.08739159934723
  C           1.18903218379047     -0.24623700845070     -1.20220441511565
  N           2.05859444294641      1.35015521086366      0.40925811732520
  H           2.35587134224073     -0.74923998604665      0.48313103221508
  F           1.08857576913090     -1.53278549727072     -1.57002448592041
  C          -0.55839768504727      1.52755501746138     -5.13586244676709
  C          -0.65257055806557      1.36563081685514     -3.82772530382098
  C          -0.13804814493794      0.15471552565990     -3.11800758435443
  O           0.59227435675655      0.61165927538790     -1.97697637470795
  Br         -1.24834196830344      3.03655878955922     -6.02279877872797
  H          -0.10759301683208      0.80902442834318     -5.80314708334309
  H          -1.09999020896715      2.11582148255491     -3.19307437374403
  H           0.50846318057972     -0.44678261357206     -3.76724869122818
  H          -0.97701893878134     -0.47004838410093     -2.78019357320603
  O           2.72317663686436      1.46176186661715      1.41843457845486
  O           1.53968880630503      2.26992075039140     -0.18726901771210
