16
Coordinates from ORCA-job NEB_product E -37.047178362520
  C           1.59163439738174      0.70995484363624     -1.57141769745685
  C           0.99363275870029     -0.51489777350683     -0.91110245737138
  N           1.37609299128334      1.90451895804308     -0.68324586832211
  H           2.67798611472641      0.57834906037924     -1.66628822544062
  F           1.33773051687272     -1.61448758089867     -1.62831177979630
  C           0.95797730015644      0.87495590237619     -2.96480824911248
  C          -0.53314702559276      0.88333944905828     -2.96495477441974
  C          -1.24269205336011      0.04484210205220     -3.69856829394740
  O           0.33029173623793     -0.60586539747753      0.05094201799173
  Br          1.64936037444380      2.57067512195176     -3.76152370580664
  H           1.34083183649569      0.08451160143596     -3.61615883222626
  H          -1.00479832150901      1.62740582214761     -2.33978579159061
  H          -0.78191268468259     -0.69607776515148     -4.33222665131966
  H          -2.31765442262596      0.06630953591046     -3.68739089848020
  O           2.36847845705275      2.37027797359203     -0.19593446633491
  O           0.24858802441932      2.27728814645147     -0.52412432636656
