19
Coordinates from ORCA-job NEB E -44.868512021620
  C           1.09058159786057      0.65807071189842      0.10979889073087
  C           0.40854860771186      1.65088146116139      0.83626835080435
  N           1.06123932008165      0.78997286595767     -1.34716841211222
  H           2.08244504856793      0.37728138096174      0.45099809053321
  Cl          1.05461460804038      2.04354376582384      2.41793272772771
  C          -0.08050273201855     -0.83990353027883      0.34100452643081
  C          -1.30745409199219     -0.33054213243677     -0.08965330119714
  C          -1.85675193262893      0.77781623842453      0.62757514488389
  O          -0.79064032787780      1.98473189630792      0.58010354256197
  C           0.53244658625538     -2.00867694089609     -0.41030984543150
  H           0.08861845894529     -0.94486996498192      1.40920085298779
  H          -1.62027524355713     -0.49752367545125     -1.10868780009367
  H          -1.94494165201625      0.65534879079570      1.70512334026254
  H          -2.73512672283001      1.23216994171268      0.18523956828276
  O           2.10852897458437      0.56180774253225     -1.90553503352564
  O           0.02823277865194      1.12128729473910     -1.86600604978538
  F           0.10848516275328     -3.16640236782598      0.15654186202708
  F           0.13732628476946     -2.04429781749283     -1.69802267600501
  H           1.63462527469875     -2.02069566095157     -0.39440377908242
