19
Coordinates from ORCA-job NEB E -41.484363171060
  C           0.73573879687442     -0.64070278773987      0.29920342070334
  C          -0.68659635912225     -0.57258716879174      0.71679718229369
  Cl          1.75877443747513      0.29794256499784      1.45300936783359
  H           1.12846780149700     -1.65520837847090      0.30979490233085
  C          -1.32131568957739     -1.76074522321754      1.30485614867396
  C           0.77447689731061      0.00242262993294     -1.09682671942102
  C          -0.36051328308945      0.97126455441415     -1.07014101861587
  C          -0.84999572684098      1.59297497072315      0.18707323008925
  O          -1.19797711546104      0.61958158789520      1.12678499570021
  N           2.05305539538577      0.57383653588003     -1.46627261016636
  H           0.57131202688366     -0.80103948916765     -1.81504480120252
  H          -0.44406183859679      1.60700016450730     -1.94483497366737
  H          -1.75481554846603      2.18268692475322      0.01193738293179
  H          -0.08856285526158      2.27191015821070      0.60648332907991
  Cl         -1.17234590976557     -3.13487272487693      0.18289627021849
  Cl         -0.49902485936767     -2.27742372306707      2.86258314347939
  Cl         -3.01914312565958     -1.48212496047793      1.66479528612550
  H           2.28653072341558      1.37383122743137     -0.89004724128041
  H           2.08599623236618      0.83125313706373     -2.44304729510642
