19
Coordinates from ORCA-job NEB_product E -41.539512621720
  C           2.20011005170762     -0.39260329024840     -2.23162822282470
  C           0.95412257710962     -1.22906275198787     -2.41457159212465
  Cl          1.87933611396575      0.56630658225923     -0.75962811604345
  H           3.08344851241181     -1.00279550434360     -2.03854573404147
  C           1.11949978869825     -2.70745904441519     -2.01856006835026
  C           2.41490377755302      0.53016607248990     -3.44259484658184
  C           3.53001076115170      1.50325074538999     -3.17010816263911
  C           3.39777566995118      2.81425793081629     -3.23306000987217
  O          -0.08618406647810     -0.80960334248136     -2.81874657173460
  N           2.66798696488120     -0.33993000901986     -4.58369918125490
  H           1.47941101027865      1.06657266776811     -3.63208500925630
  H           4.48788126302951      1.04981670878690     -2.94775994118498
  H           2.44975995835515      3.27671376157714     -3.45270980339716
  H           4.22701829374766      3.47847981087196     -3.06022667676567
  Cl          2.28569148092525     -3.41165351030664     -3.16095359756524
  Cl          1.75653889345390     -2.83078588954130     -0.36821044509210
  Cl         -0.41496519066733     -3.56645923841971     -2.13317676628003
  H           3.58601090328665     -0.76712925850129     -4.51085251115036
  H           2.63864323663850      0.19201755930571     -5.44498274384098
