26
Coordinates from ORCA-job NEB_product E -31.460376774290
  C           2.29841110164185      0.93277855939943      0.51886942718423
  C           1.52833769120171      1.31529905735737     -0.72768024597663
  H           1.64256625388637      1.05806728862290      1.38065004232348
  H           2.63293229991936     -0.10385998276833      0.45844504907256
  C           2.02783105434542      0.67005055787893     -2.00315121141928
  C           3.52099081536012      1.85872564850802      0.67033253490445
  C           3.07795208966821      3.28870055953539      0.76478260089897
  C           3.60218500868246      4.27164641075928      0.05849926649317
  O           0.59710074450385      2.07854023487085     -0.69914057519384
  C           4.38717458811095      1.45600204743079      1.87876305045348
  H           4.15176841819901      1.74955703208710     -0.22002017303627
  H           2.27284216176776      3.48558227703813      1.45806118241195
  H           4.39655988523277      4.10210186750068     -0.65126763878442
  H           3.26230496733935      5.28836984016847      0.15495292692184
  C           1.46199347406388      1.33601457258973     -3.24983305080581
  H           1.72502824748251     -0.38095653645037     -1.96819008027055
  H           3.11930273511556      0.69259473719936     -2.01093974533366
  H           0.37584847972110      1.33136508261082     -3.21301392465585
  H           1.78830845948572      0.81447937223796     -4.14621893538217
  H           1.79205014308640      2.37053220304675     -3.30370110202819
  C           3.70374258257789      1.59367428647034      3.23378405233844
  H           5.28032623893739      2.08538981768429      1.87037338011846
  H           4.70997149276234      0.42041750211724      1.74337723441328
  H           3.39741427835111      2.62121216543145      3.40950012761173
  H           4.39546518373661      1.30677044325843      4.02292407752500
  H           2.83039160482029      0.95054495541497      3.30354173021564
