26
Coordinates from ORCA-job NEB_reactant E -31.446788652170
  C           2.99374406728199      0.43156266365672     -1.03305607229208
  C           2.02572614584455      1.28505795154948     -1.34014269914392
  H           3.88413141361361      0.70960905641208     -0.50122394159529
  H           2.90261758987243     -0.60246091594694     -1.30874252191761
  C           0.78377686094157      0.88778005569105     -2.09344992195527
  C           4.46948282406388      2.62605708418609      1.56986579790399
  C           3.30007028533420      2.81324341049718      0.98248434078039
  C           3.13591114229084      3.20775481200344     -0.45718746028911
  O           2.00630496349263      2.62238873437465     -1.07086989747682
  C           4.70493103034085      2.26179396496982      3.00318081999612
  H           5.37740582073234      2.74719071748215      0.98886820812601
  H           2.36960408599675      2.70201122378836      1.51849424088216
  H           4.04533350239291      2.98336222254788     -1.03079781493721
  H           2.94254213451573      4.28599129914589     -0.51975171505193
  C           0.90990605739065      1.24851412992551     -3.57363139177833
  H          -0.06654594597782      1.42130586251824     -1.66528656547597
  H           0.61931552937305     -0.18408790977023     -1.98487935105427
  H           1.07627006561238      2.31704857829423     -3.68448346567086
  H           0.00192758943722      0.97996046839999     -4.10853965288678
  H           1.74779053665193      0.71865938653578     -4.02128938843901
  C           3.44350720706856      2.06879925442880      3.83354491652309
  H           5.32314514878366      3.04440249059955      3.45547962472987
  H           5.29832760327490      1.34179768985697      3.02602207814509
  H           2.85919394668160      2.98519860887633      3.86321007281987
  H           3.70792610725095      1.79829125256982      4.85332623929606
  H           2.82895428773861      1.27466790740715      3.41665552076181
