19
Coordinates from ORCA-job NEB E -42.190713715910
  C           0.72183568534121     -1.13627489159090      0.57837226782148
  C          -0.23247001264493     -1.68947683136976     -0.28119419378043
  O           0.42235183248043     -0.94705564511871      1.88006697813681
  H           1.77138338731416     -1.33092076271596      0.41133854450924
  O           0.19298080876752     -2.11938002261273     -1.50151319742265
  C           0.42820152608300      0.77939284453308     -0.25772418568602
  C          -0.91408674279455      0.97471762446894      0.03762747362686
  C          -1.86920331424142      0.16337810097043     -0.60965122390866
  O          -1.47659781648743     -1.43873093981617     -0.09145210212732
  C           1.46795730689697      1.65150452921626      0.37190884781666
  H           0.70582042422890      0.48115733614108     -1.26316116510869
  H          -1.17616836481485      1.44491085334817      0.97357376327469
  H          -1.75082052947854      0.00981310495780     -1.67614441595724
  H          -2.89891562282220      0.23847008854615     -0.29234865202445
  H          -0.54292172052373     -0.93050374482400      1.98042122826452
  H          -0.57729518158808     -2.33637669826563     -2.04435459742834
  Cl          1.41340883521419      3.25378466732694     -0.45145356513844
  Cl          1.20918429211820      1.92628724058456      2.09821617321555
  Cl          3.10535520695118      1.00530314622045      0.13747202191643
