21
Coordinates from ORCA-job NEB E -45.289610644440
  C           0.34236407789848     -0.26590460389818      0.80261067419694
  C           0.77676287670177     -1.09250225698674     -0.24754914141276
  O           1.16389121855114      0.31153573068493      1.62707694985919
  H          -0.73457211590213     -0.08955167140172      0.95235801037175
  C           2.09524455984617     -1.48137974203877     -0.43879146017469
  C          -0.34114654828520      1.06921251648966     -2.16319594600118
  C          -1.33964402970589      0.48371666903357     -1.52173524216088
  C          -1.38848653682810     -0.99336963889072     -1.25795211779138
  O          -0.09893698780985     -1.59662414073165     -1.15499030085042
  Cl         -0.26736766333230      2.76329786823078     -2.42252652700442
  H           0.50308614724842      0.53317448766687     -2.57184746580855
  H          -2.16356237606102      1.05353655923160     -1.12082693072401
  H          -1.85241308976171     -1.51962397739253     -2.09786322537917
  H          -1.98351777045252     -1.18286210387248     -0.35803449874296
  C           0.60706983168765      1.11220832304339      2.66438129534390
  H           0.95975671690551      0.71494588271846      3.61655669549107
  H          -0.48578618864202      1.10511832873044      2.62719159265328
  H           0.98361914192136      2.12826254534727      2.54074405276369
  Cl          2.49013774583442     -2.50955184712314     -1.73096566279399
  Cl          3.35763858664603     -1.05853935722649      0.60227014163252
  Cl         -2.62413759646021      0.51490042838547      1.65308910653210
