20
Coordinates from ORCA-job NEB E -34.456431264510
  C           0.84759426005803      1.34220142648458     -0.12145461837161
  C          -1.11272264439083     -1.38926076125525      3.23974809606381
  O           0.19628162269238      1.70800599397581      0.90298151308847
  H          -1.15351560594077     -1.10398922711076      2.15260443498667
  C          -0.96150961725990     -0.20293830678604      4.06702769452806
  C           0.01077929170158      0.79344747622545     -1.25589847368973
  C           0.07306694870824     -0.67942808304123     -0.93569248079226
  C          -0.90948904086210     -1.35944790928819     -0.36795451965380
  O          -1.25585455538293     -2.49226030652279      3.66015294568235
  O           0.45564516105753      1.15984438055247     -2.54197974679408
  H          -1.03955005193679      1.13731463229171     -1.22172151914290
  H           1.01188522095106     -1.16481907257744     -1.14985071879282
  H          -0.78028793967791     -2.40012132517680     -0.12295240457755
  H          -1.87985592662859     -0.93337667711582     -0.16239737716557
  H          -0.79686797073045      1.69945321264863      0.86496161911853
  N          -0.90342261724720      0.73820962254215      4.71516565585524
  C           1.79297688158522      0.83842498329004     -2.85538385339372
  H           2.04018239780149      1.44113329453153     -3.72751602947544
  H           1.90320101337401     -0.22126365944118     -3.11122517673692
  H           2.46146317212794      1.08887030577313     -2.02861504073672
