20
Coordinates from ORCA-job NEB_reactant E -34.593113183540
  C           1.09092281152222      0.05213809356864     -0.27472008001689
  C           1.37052256306188     -1.26170560104766     -0.18290167755422
  O           0.29897791010436      0.62766157573765     -1.22314243781116
  H           1.52679664878404      0.70602481077590      0.46969330547921
  C           2.18712088026474     -1.64981051612054      0.91203676902321
  C           1.85908880862772     -0.43624859118989     -3.74708894903671
  C           1.82351343945944     -1.59728548415670     -3.10563364394121
  C           0.63289802755554     -2.04633116952128     -2.31448310660527
  O           0.97411290189659     -2.30969395253325     -0.95838533228261
  O           2.86241564605945      0.09393670841730     -4.48003250649859
  H           1.00733549477540      0.23126115138410     -3.75098692628847
  H           2.66692393460527     -2.27036222423599     -3.08145025352954
  H           0.27376812334619     -3.01532079195991     -2.67535502543543
  H          -0.17475285780859     -1.31186490177605     -2.37847011937521
  H           0.34970500643095      1.58658981424146     -1.15998093443552
  N           2.84864152814370     -1.95562116662071      1.79703935474066
  C           4.05254656770458     -0.65285738175884     -4.59210138901383
  H           4.72084980830079     -0.06289706742720     -5.21644644791156
  H           3.86710248314024     -1.62141957387431     -5.06611368494466
  H           4.51301027402550     -0.81359373190270     -3.61237691456221
