20
Coordinates from ORCA-job NEB E -50.260458765100
  C          -1.04829226007464      0.48748981036709     -0.47261875684894
  C          -1.77590199168739     -0.45010431396754      0.26990169620893
  C          -0.62813231933944      0.09971357004719     -1.88059016162824
  H          -1.38735077242928      1.51866212496843     -0.45077994622624
  Cl         -2.77698646286286      0.20246333078119      1.56517987085109
  C           0.56950975915781      0.46124900552415      0.64660849593741
  C           0.90938707859958     -0.88958143250553      0.70305875237785
  C          -0.03502285947328     -1.78531302757271      1.28890134561999
  O          -1.37857488607416     -1.65472834451228      0.39899296086724
  C           1.58133095324797      1.42921005915976      0.07787521028912
  H           0.07639176068130      0.90876273918500      1.50665500671507
  H           1.63451152478645     -1.27767489881006      0.00411308984946
  H          -0.42377246768361     -1.50654993171998      2.26624875549294
  H           0.19560942577460     -2.84038311741813      1.21088808389665
  F           0.07009881733235      1.09669202881115     -2.46189905185324
  F           0.14597316478738     -1.00104879064374     -1.93771676877983
  H          -1.51500403497748     -0.08744014145325     -2.51145386266228
  F           2.29482134907569      0.94346483662501     -0.93484367723803
  F           1.02409824190166      2.57818447489761     -0.32614491468986
  F           2.46730597925737      1.76693201823664      1.03762387182090
