20
Coordinates from ORCA-job NEB_product E -50.306266228650
  C           3.25487226676037      0.99850040563167      0.56514740061487
  C           2.23343155210528     -0.03134809641146      1.00006661858993
  C           3.60133791194425      0.76069556328685     -0.91726832104190
  H           2.78240427716338      1.98891340839618      0.60664364038354
  Cl          1.62975831923418      0.26166774037545      2.61901987216226
  C           4.44355714847547      0.99854860140175      1.56125960706766
  C           5.09182741244485     -0.35185391043758      1.73217861970160
  C           5.02444615687023     -1.03464699207642      2.85856860504275
  O           1.82350527685872     -0.93889799864320      0.36121427582624
  C           5.50434638965346      2.03936507215542      1.18798077420294
  H           4.04826089591719      1.32920145253432      2.52941433163017
  H           5.63286635877437     -0.73192302620663      0.87935666851257
  H           4.49686747591746     -0.66753263486926      3.72375495365097
  H           5.49917016741004     -1.99432797240026      2.95806821275930
  F           4.09531284001715      1.88997385302715     -1.46662663527748
  F           4.52699130385088     -0.19824830514547     -1.09797892207641
  H           2.70507369471315      0.47166496800222     -1.48964432006645
  F           6.25884029914618      1.70741396244421      0.14479946003394
  F           4.95715442135034      3.23666775890595      0.92523252027227
  F           6.34057583139304      2.22686615002910      2.22161263801122
