17
Coordinates from ORCA-job NEB E -37.944079340730
  C           0.62493708481020     -1.01181187470628      0.26751800258361
  C          -0.61748207867095     -0.93514132472399     -0.42102828256009
  C           0.56946980788593     -1.27586422868689      1.67305528347884
  H           1.39837806554139     -1.59049431391649     -0.24108891521633
  N          -0.57785901069648     -1.18727312344843     -1.85036325522016
  C           1.18480279446168      0.73799989899104      0.21433783660560
  C           0.09052798171647      1.44305842787820      0.74740008427742
  C          -1.17672326615548      1.34659923460358      0.08000203260757
  O          -1.56710364623271     -0.16638814029532      0.00604365586080
  F           2.32442546303655      0.76463993645675      0.92651601144506
  H           1.42698444446214      0.81842826475470     -0.84625591467632
  H           0.12200802838912      1.67822957481896      1.80129712123970
  H          -1.18144911929431      1.62292633975822     -0.97548369390296
  H          -2.00811207974929      1.79573514715509      0.61290126926545
  N           0.50148028201466     -1.48862820730973      2.79279524081087
  O          -1.44456783810857     -0.66979271015944     -2.52063568126392
  O           0.33028308658964     -1.88222290116997     -2.26701079533512
