17
Coordinates from ORCA-job NEB_product E -37.966304464520
  C           2.67096689818965      1.32753866136301     -0.54154888253764
  C           1.65108684599191      1.26747628200339     -1.63739880560228
  C           2.22411945969918      0.47884434429586      0.55085006855488
  H           3.61917546764682      0.90443950664036     -0.90565894399321
  N           1.58547142808784     -0.13650577885512     -2.29822921799213
  C           2.90485739187788      2.78756916937994     -0.06600340076206
  C           1.84605363720140      3.25450949695642      0.88828494974534
  C           0.85266201685073      4.04741910437086      0.53685822020590
  O           0.92136268614003      2.10426756424966     -2.04118207157591
  F           4.13967727605919      2.82263985405531      0.53992148003023
  H           2.96952328019694      3.44107974924567     -0.94593186674591
  H           1.95699592147551      2.88335543791367      1.89715996631933
  H           0.74343311107360      4.41505518640741     -0.46992955872895
  H           0.10080451887074      4.34843855653479      1.24440815816662
  N           1.86341956997154     -0.16465387655275      1.41965846247516
  O           0.64544702712814     -0.31959375143680     -3.01670872629987
  O           2.48224346353889     -0.89817950657167     -2.03454983125949
