14
Coordinates from ORCA-job NEB_reactant E -30.919008289700
  C           2.07280926112777     -0.86727926449108     -0.46889800354064
  C           1.05334416668446     -0.94759328441789     -1.32061894960408
  Cl          3.63960614145008     -0.22495510392164     -0.79929666143483
  H           1.96297300354806     -1.23006678917156      0.53834010470728
  Cl         -0.41588699085625     -1.63677119962441     -0.71972296238163
  C           2.81206608329316     -2.50219285519971     -3.44021826489131
  C           3.00073142999339     -1.21076882049628     -3.65117896724391
  C           1.96019662293357     -0.16026488626947     -3.39561655331641
  O           0.86934829071040     -0.59813684673265     -2.60146302629481
  Cl          4.02870235797240     -3.67322340659738     -3.74128315146221
  H           1.89217013624314     -2.92172250930596     -3.06292855115047
  H           3.93844757512708     -0.84003710426007     -4.03603577902538
  H           1.49147225307666      0.13227273081567     -4.34220190054638
  H           2.42561966869607      0.72763933967242     -2.95457733381522
