18
Coordinates from ORCA-job NEB_product E -37.804156253660
  C           2.34415436737189     -1.02359757290481      1.64066456383722
  C           2.32135362281993     -0.01828917339539      2.77331757899975
  O           1.24944877570946     -0.72303735519328      0.81809340013386
  H           3.29875249171698     -0.85740360057046      1.10654907609077
  N           1.97566663088525      1.37013447907738      2.23665155036958
  C           2.30523898051423     -2.47601863694329      2.18101633397179
  C           2.27253067408983     -3.44649073962024      1.02663863582930
  C           1.22877260927690     -4.20097850871580      0.74061353030393
  O           2.53295598078199     -0.18367525051798      3.92554926261915
  C           3.48344390835849     -2.73593489098995      2.98108989874094
  H           1.41293254913042     -2.59538264014829      2.80566366598242
  H           3.17390190903851     -3.47903181339754      0.42855838047261
  H           0.32918431327936     -4.18074467712637      1.33382471219899
  H           1.23456857204904     -4.87666417758669     -0.09698723651952
  H           1.24660563262056     -1.30402561875580      0.04791210277724
  O           1.03986094239066      1.92317825849020      2.74056119173310
  O           2.69788966701538      1.77597040676735      1.36214492287347
  N           4.44013837295111     -2.96670848846906      3.55943842958540
