19
Coordinates from ORCA-job NEB E -48.712241220000
  C           0.57690276086754      0.10489266648764     -1.17822521744878
  C          -0.70041349632861     -0.44952111492540     -1.44663445310105
  F           1.62653442459679     -0.72276188170228     -1.26143085446243
  H           0.81166110341000      1.07318459015106     -1.62024682541326
  N          -1.75007592190436      0.50466423836549     -1.73545947639000
  C           0.42176276328813      0.40084712800605      0.65596024742196
  C           0.09413957577759     -0.88611255557553      1.11608686086641
  C          -1.13998187051918     -1.47967798806334      0.66856747575610
  O          -1.06388549088422     -1.56092995772513     -0.87408485190215
  C           1.69115522264216      1.04455899211411      1.17291667450925
  H          -0.37573845501790      1.14184695262315      0.62886046086410
  H           0.89023179529709     -1.53103924693320      1.45734072757615
  H          -2.03877549682619     -0.88224264244816      0.83423399664810
  H          -1.28647550764163     -2.51153627739443      0.97167598926273
  O          -2.88402042707962      0.17059854163351     -1.46827952994133
  O          -1.41564579148207      1.57588157572249     -2.20713892972147
  Cl          1.35730601554218      1.55449954075879      2.86004489257579
  Cl          3.08075769840581     -0.04941168947353      1.18638839789985
  Cl          2.10456109785649      2.50225912837870      0.23942441500004
