27
Coordinates from ORCA-job NEB E -35.514761114760
  C          -1.03533629545204     -2.06187734749796     -1.21381922147477
  C          -1.85139328733360     -1.06916636887953     -1.54635109542661
  C          -0.36166966355183     -2.18731180201511      0.11591177964249
  H          -0.83720962183213     -2.82207383751675     -1.95254030652233
  O          -2.38523235663754     -0.97929059198663     -2.80434189087173
  C           0.22819358840921      1.97536472061078      0.51108464112924
  C          -0.23720469783046      1.24437171952205     -0.48722403041906
  C          -1.67612204171005      1.20015891904806     -0.90053809905419
  O          -2.25400466910253     -0.09070271728439     -0.67580128038162
  C           1.65470752082494      1.99564745788988      0.95692687696279
  H          -0.44395617303119      2.60892861907612      1.07652612522582
  H           0.42004451706642      0.59594867530982     -1.05066431590752
  H          -1.76890451556419      1.47173296450953     -1.96309084953272
  H          -2.27854211812257      1.88541647795389     -0.30010061668638
  C           1.17136130148862     -2.23414249295034     -0.02174186444909
  H          -0.71254151165578     -3.10170810705560      0.60052093546323
  H          -0.66400863153528     -1.34666211785227      0.74072229508104
  H           1.57295554162951     -3.17279347243355      0.35095619279226
  H           1.63647342142224     -1.42446053274392      0.53421570274386
  H           1.46511552480964     -2.13725965657924     -1.06441497354584
  H          -3.14872949226800     -0.38925162094893     -2.77467751610781
  C           1.78077710285062      1.50500608107658      2.39960549834857
  H           2.03530035643115      3.01926602506370      0.89630729292964
  H           2.25818499278099      1.36857872898345      0.29834825649073
  H           1.44026052092160      0.47497885025719      2.47949691715874
  H           1.17584717033762      2.11709466011039      3.06477304535935
  H           2.81563351665468      1.55420676633278      2.72991050105187
