27
Coordinates from ORCA-job NEB_product E -35.543109897720
  C           2.83866131292543      1.10032246775219      0.56976293576564
  C           2.65258665779640      1.18100235075116     -0.93837902242041
  C           1.70491758842543      0.24550490597501      1.15545864256744
  H           3.79424260586869      0.60917969691883      0.79094513305397
  O           3.78295772230078      1.13341457283491     -1.67213259481850
  C           2.86713239625148      2.52448505689730      1.17895806723518
  C           1.54032540085112      3.20475087437163      1.00458553099102
  C           0.85610812171582      3.74682778412930      1.99397780872915
  O           1.59092090125361      1.28127001349809     -1.48179931961207
  C           3.97216537468869      3.40982381404114      0.57322802647537
  H           3.07514967880376      2.42311355285243      2.24894740354630
  H           1.16717168053149      3.24504782022447     -0.00894948342858
  H          -0.08411807627359      4.24473803909166      1.83105603306574
  H           1.20779658198465      3.71943921590530      3.01353458828276
  C           1.85947495674262     -0.02281390097354      2.64660550517244
  H           1.68887338566145     -0.70747086163594      0.62071199267443
  H           0.75539986385330      0.74549177340170      0.96304166941819
  H           2.84093493551151     -0.43973932377418      2.86571205143511
  H           1.10669035519988     -0.73618839354177      2.97201655799857
  H           1.73005228985988      0.88789716016411      3.22428168047153
  H           4.58010208702198      1.08412324503104     -1.12847866101216
  C           5.37997994830771      2.99358211461752      0.98942383365003
  H           3.80244930372585      4.43181271432841      0.92060787618986
  H           3.88616214174507      3.42510328271441     -0.51510104141803
  H           5.47892445235541      3.02905255077576      2.07240248112208
  H           6.11223258508461      3.67245850915089      0.55880352495915
  H           5.62810574780698      1.98497096449817      0.66357877990579
