27
Coordinates from ORCA-job NEB_reactant E -35.518861902240
  C           1.41613836709196     -0.57994275584164     -0.00693430567689
  C           1.32988872575681      0.74480219929393     -0.11941191228925
  C           2.54893113847891     -1.28767343180336      0.67100067433223
  H           0.64787865374417     -1.19348418152284     -0.45407550345529
  O           0.29813400468626      1.38499194865786     -0.75436984237902
  C           3.12576333297993      4.70147432378450      1.70442032816258
  C           3.22180526256477      3.66752406413486      0.88657307834610
  C           2.05379069167497      2.96580316981696      0.27042930922332
  O           2.26545808492631      1.56632348288613      0.40290979963624
  C           4.28906134414245      5.41758388839202      2.31182338028998
  H           2.15086737965176      5.08436408473124      1.97981571434638
  H           4.18558866783640      3.26427459147403      0.60933401905824
  H           1.97899557022004      3.22410700154554     -0.79642930896865
  H           1.11566857146857      3.25622804653802      0.75826972000227
  C           3.39180009830143     -2.08268580726674     -0.32689828689115
  H           2.15028580155103     -1.97364652637115      1.42417072374108
  H           3.17302173620839     -0.54948515780763      1.17366943840322
  H           2.78017704474634     -2.82364748771562     -0.83779260793851
  H           4.20244320035274     -2.59741056388063      0.18385562727133
  H           3.81921507455860     -1.41640875024514     -1.07236197037956
  H          -0.31609563131607      0.72744391788686     -1.09636043542052
  C           4.22406630555155      5.37272384968981      3.83830123241823
  H           4.27581657601153      6.46199597979309      1.98628698808674
  H           5.22161336357073      4.96685664552208      1.96856484112318
  H           3.30557197234210      5.83364196578806      4.19493478088960
  H           5.06785600300445      5.90494726106671      4.27102801477784
  H           4.24835865989388      4.34239824145306      4.18514650329030
