23
Coordinates from ORCA-job NEB_product E -49.411972176080
  C           2.82743525549289     -1.50388348403562      0.01324417545854
  C           1.55837273592151     -0.99567863830957      0.66263215660488
  C           3.23953650853872     -0.55409509481318     -1.11381471255269
  H           3.65293862972706     -1.48570327212355      0.73328324830974
  C           1.44790637960476     -1.30458888093533      2.17761001932601
  C           2.58905697952717     -2.98406448264900     -0.43182281421533
  C           1.30065503201459     -3.13940833675026     -1.19216672530625
  C           0.25173673596813     -3.78182607780759     -0.71525952238106
  O           0.66906966344928     -0.43505580659954      0.09488021886153
  C           3.76335319730426     -3.51299820520923     -1.25384598594653
  H           2.51908279191417     -3.56855700989018      0.49105024729891
  H           1.27713404728466     -2.70402625476344     -2.18000677741276
  H           0.25136911339578     -4.22414633365405      0.26801988953011
  H          -0.65171544283022     -3.89107591570592     -1.28894646271160
  F           4.52005944643489     -0.74421824992243     -1.46962455955529
  F           2.51742578628866     -0.64902561172371     -2.22766317287093
  F           3.16325780159139      0.72348680828148     -0.70675355104624
  F           1.21456387471477     -2.62438130283793      2.36483172511945
  F           2.61032272796699     -1.02964525939938      2.80929987782312
  H           0.63658002556751     -0.73317226534025      2.65028915531270
  H           3.81604627771770     -3.03011014474601     -2.22606564897487
  H           3.62545053269045     -4.57952033910735     -1.41404120930192
  H           4.70666189971488     -3.35910584195798     -0.73532957136952
