20
Coordinates from ORCA-job NEB E -48.463195178310
  C           0.80013516505233     -0.26492501578095     -0.47758480825501
  C          -0.25590598673202      0.71243956508975     -0.74897114908021
  C           0.60566258654274     -1.58085473352087     -1.24752937972469
  H           1.80830886508240      0.09273299196247     -0.69966839368373
  C           0.05096320909084      2.12108934132317     -0.92331083994583
  C           0.72812612772789     -0.57859984660840      1.13679974438299
  C          -0.63563548671628     -0.91758681576880      1.47487058027683
  C          -1.65233012607762      0.00871700652631      1.12432138541049
  O          -1.46986705594052      0.40379066471530     -0.40851257975369
  F           1.61509205652870     -1.56473297976789      1.42292242818794
  H           1.10646782479781      0.34386218572564      1.59853613584546
  H          -0.86552168904330     -1.95427602365252      1.65957567292146
  H          -1.55450300072857      1.00461341574392      1.56029185040393
  H          -2.66960202884448     -0.36197599103990      1.18435533049331
  F           1.69815229484230     -2.36004031203623     -1.14409649526988
  F          -0.43535223623614     -2.30245552883240     -0.79039051646000
  H           0.43694526000835     -1.38644994183085     -2.31918808393988
  Br          1.53497695996970      2.51014536160713     -2.06339973018902
  Br         -1.48665144848321      3.14464880940913     -1.40664591295700
  Br          0.64053870915911      2.92985784673600      1.06762476133652
