20
Coordinates from ORCA-job NEB_reactant E -48.488388000690
  C           2.02448124856549     -0.07920690782597      0.17831827837804
  C           1.52383522911778      0.83555365137886      1.01735999944099
  C           1.61954962756726     -1.51174130628473      0.02759006644357
  H           2.79948690335826      0.22315169259408     -0.50685597085367
  C           2.04023364731527      2.25608527675210      0.97793843777546
  C           1.70692366211216     -0.08628490598752      4.85663607687532
  C           1.58188955041059     -0.64281623504899      3.66551077225609
  C           0.38721844032549     -0.39026741954877      2.79753526488874
  O           0.59243693005676      0.76582534459877      1.97448060659118
  F           2.78363860968509     -0.28653800661696      5.61769317846637
  H           0.97991016900075      0.55456967920471      5.33704730049505
  H           2.37359935973521     -1.26272846252373      3.27239148516208
  H          -0.47938682341868     -0.10599413047258      3.39829362225105
  H           0.13478277233736     -1.26723149930412      2.20263979539904
  F           2.04432570595180     -2.28978420736209      1.06192292252955
  F           0.27051400957200     -1.66345354147078     -0.01503863260402
  H           2.02943433334772     -1.94500130494976     -0.89554086972908
  Br          2.68260918550227      2.84406217931849     -0.74360378335826
  Br          0.65616527680236      3.48131697269974      1.54359575766701
  Br          3.52445216265504      2.36438313084927      2.27278569192549
