19
Coordinates from ORCA-job R E -35.935742387100
  C          -1.55478663302034     -0.08484915677961     -2.86754328131927
  C           0.11458992137869     -2.57077737598834     -2.58539445803732
  C          -1.00954003189340     -2.30367286812302     -1.92832255679216
  C          -1.83142016065003     -1.11959636708065     -2.08416248194509
  C          -0.78055724344284      1.76589971630759     -0.28097235010644
  C          -0.28415559184334      0.96284081709037      0.64123284972252
  H          -1.36640226835724     -3.00536272765766     -1.18625951790515
  H          -2.73649220214438     -1.07811715865261     -1.49349328663589
  F          -2.37272263842922      0.98356606329218     -2.91587451516016
  H           0.67255308057610     -3.46832679780908     -2.38244686649150
  H          -0.70217601280343      0.03225224571161     -3.51860257951427
  H           0.52018511330978     -1.91847738055036     -3.33876113357963
  H          -1.71972320381623      2.26757236355195     -0.12629062114261
  H          -0.80205195787785      0.80042965996458      1.58148794625314
  H          -0.28496592739592      1.96055806074602     -1.21755401336425
  C           1.00047009671315      0.23141658630678      0.55582111653452
  Br          2.28506105102012      1.03018992568684      1.84043473446859
  Br          0.73714823584364     -1.64294607881696      1.07028490945137
  Br          1.82809637283271      0.25186047280035     -1.19461389443639
