18
Coordinates from ORCA-job NEB E -29.843797983660
  C           0.21681041558617      1.14439411889623     -0.36053188424755
  C          -0.93574919093665      0.61697913831984      0.25483868058284
  N           0.41324413424193      1.02709632310044     -1.74300023561675
  H           0.68126678652236      2.01939228923018      0.07950502924198
  N          -1.17171785924286      0.90314948904219      1.60395578516006
  C           1.39280498006355     -0.35511380380743      0.30582774746088
  C           0.81480955416859     -1.47521533724896     -0.27408721972378
  C          -0.49339750369056     -1.81003110845860      0.14038203082637
  O          -1.46026550896198     -0.45970853262405     -0.22980066085012
  F           2.60500558994419      0.04643911156161     -0.13209802122983
  H           1.29169376088784     -0.15291652967032      1.36903272901536
  H           1.14618316623515     -1.74807982202087     -1.26391035233710
  H          -0.67658606544575     -1.83350767512800      1.20939304336002
  H          -1.00027759701850     -2.59628404974811     -0.40128296828356
  H           0.49676450436451      1.90416254705921     -2.23269165421777
  H          -0.26446080894306      0.40683184717668     -2.16645757497622
  H          -2.02758684008414      0.50240456508580      1.95691774659722
  H          -1.02854151769080      1.86000742923416      1.88400777923795
