18
Coordinates from ORCA-job NEB_product E -29.896884731820
  C           2.82466327622258     -0.73271344219982      0.85194661093875
  C           1.43274860856477     -0.84191644662616      1.47531328948029
  N           2.68784157961139     -0.45766072092445     -0.55589542593456
  H           3.39360311563183      0.08744064987085      1.30937812389277
  N           1.34800889176686     -0.39091650086632      2.74646998953763
  C           3.58074635021716     -2.05592021566593      1.18909400217720
  C           2.98290629441550     -3.24301564074772      0.50630595256703
  C           2.15379263409569     -4.08310630626963      1.09465188253267
  O           0.50077980104169     -1.34642356544438      0.89500939253230
  F           4.89579222187994     -1.89232490115649      0.77827105237780
  H           3.61706262771046     -2.19362718405682      2.27712436777990
  H           3.26366133646424     -3.36189278071742     -0.53075938344089
  H           1.86976134090959     -3.97245380201657      2.12794602833899
  H           1.71363109095383     -4.90671304592098      0.56143356349843
  H           3.54437490806850     -0.67396865111452     -1.05290866121938
  H           1.92621405737248     -1.01042542400718     -0.93739910759819
  H           0.44916162940451     -0.41020096269904      3.20078926538010
  H           2.09355023566898      0.11883894056260      3.18522905715915
