20
Coordinates from ORCA-job NEB E -46.504739128230
  C           0.85855881310040     -0.14678015965597     -0.70540291210183
  C          -0.14138518005355     -1.20356106072350     -0.89644437850929
  H           1.80088402605754     -0.56045731985052     -0.34629381184978
  H           1.02628183572442      0.44036265703501     -1.60679471357491
  C          -1.03016703783643     -1.19768499007486     -2.02886132214740
  C           0.30436647277458      0.81325221736607      0.47112817916611
  C          -0.02178576485153     -0.02861124000648      1.61348484590160
  C          -0.94381556232470     -1.08341277324973      1.40167259825446
  O          -0.48748235740520     -1.92141705480105      0.12233345656621
  C           1.29950083779191      1.91433396904485      0.79163247380443
  H          -0.59158524740505      1.27669532111457      0.03401702609443
  H           0.66063771256247     -0.07464423668567      2.44826866190431
  H          -1.93023419373967     -0.78378279687064      1.04122973608732
  H          -1.00908285314859     -1.82251041671738      2.19237908557815
  Br         -2.12460426346502     -2.74559939260167     -2.16083404512497
  Br         -2.56512453423699      0.49809939943657     -1.52264678995254
  Br         -0.31557983174680     -0.67394075814446     -3.70857115667406
  Br          0.54823764845507      3.06947802547633      2.18658752811849
  Br          2.99679860691428      1.20283775992903      1.44587727916800
  Br          1.66558087283288      3.02734284997952     -0.77276174070871
