20
Coordinates from ORCA-job NEB_product E -46.540074259060
  C           2.35623306241434      2.59800782704167     -0.00687907693648
  C           1.06032417103849      2.81834693377421     -0.74321837085361
  H           2.42156835634368      1.51923053726975      0.17316429013773
  H           3.22615391193789      2.88627274908358     -0.60024555535351
  C           1.14428810404811      2.81818940596939     -2.26960401977469
  C           2.34855107672809      3.30067135201652      1.35850726378908
  C           3.27271457858672      2.60302527287420      2.31889819225281
  C           2.91615413343588      2.24184649559016      3.53667238817104
  O          -0.01274845472231      2.87551191775013     -0.21596850416996
  C           2.74525426261084      4.77039746652289      1.23483004895448
  H           1.32414786453843      3.27407459994384      1.75491550503777
  H           4.27238666373648      2.41800541217796      1.95005041417839
  H           1.92547676852269      2.42214368173407      3.92088747785860
  H           3.60484067582083      1.74972492505387      4.20021429189899
  Br          1.54052820548173      0.94951396139670     -2.73522234512354
  Br         -0.56285331452597      3.32253895889944     -3.02109164593326
  Br          2.54004932231312      3.94609162100668     -3.00013993022085
  Br          2.60215873585851      5.65129561491917      2.96916821448111
  Br          4.58364923273838      4.98062893427240      0.60209428557772
  Br          1.57692264309406      5.73168233270336     -0.01153292397183
