20
Coordinates from ORCA-job NEB_reactant E -46.526459709530
  C           1.40340823471258      0.24616026908492      0.04632838334301
  C           1.74014417414951      1.31973573640088     -0.65336715622328
  H           1.47318379767172      0.22294602019821      1.11753019683566
  H           1.04619228287447     -0.64762548820058     -0.42758286053756
  C           1.66784723050941      1.44212035635107     -2.14421693833171
  C           2.52569440975094      4.84830765633954      2.39157327634803
  C           2.93240008299183      4.03368689750582      1.43185846963357
  C           2.35985602089567      2.67192903195049      1.21062158597862
  O           2.20306690173834      2.50699482529895     -0.18285759910454
  C           3.07283239804552      6.19086206298464      2.68381883256883
  H           1.73451750786669      4.55618767344220      3.07238571914435
  H           3.71169564726595      4.30900560682497      0.73451473833699
  H           1.39586197535480      2.55382802558536      1.72176977145597
  H           3.06268264296737      1.91703163198395      1.59654622956964
  Br          1.08103897283521     -0.14649180198232     -3.05935312324492
  Br          0.43716968705944      2.90410349588893     -2.58769160541699
  Br          3.44438054891625      1.92139704624961     -2.81743237687605
  Br          3.81682468915858      6.19019631866468      4.51582131377964
  Br          4.46718713199140      6.78800800211810      1.47813782908235
  Br          1.61081566324429      7.51311663331060      2.62949531365838
