24
Coordinates from ORCA-job NEB_product E -52.909161174930
  C           2.45028978954342      0.08785653899335     -1.35388709763602
  C           1.34311228286694     -0.84708304418657     -0.87220556761910
  O           2.15919067739107      1.41395568168696     -1.02229289112317
  H           3.41854677347378     -0.22329985128330     -0.92957760931864
  C           1.81587049743377     -2.20441270868076     -0.30795776373631
  C           2.50015022107465     -0.03421077321727     -2.90122110275500
  C           1.29126290029415      0.60832972391148     -3.51658012332093
  C           0.39582386966425     -0.05662134268508     -4.21997301831949
  O           0.18316630950550     -0.56754024774134     -0.87750084929708
  C           3.78553822697513      0.60714913110596     -3.43559563490456
  H           2.55091337082232     -1.09374132125034     -3.17003341833685
  H           1.19320797117097      1.66426136570138     -3.31765018297492
  H           0.48350861354144     -1.11522897571455     -4.40523643984781
  H          -0.46693274159580      0.43104043073497     -4.63754704895807
  C           2.33879392675100      1.72153120694144      0.34015950128894
  H           3.35883030626740      1.48805937953877      0.66646085178815
  H           1.62637473521808      1.18232336642576      0.97354183539415
  H           2.16474278776243      2.79127785445012      0.42732402767370
  Cl          3.06885212014290     -2.96004700967772     -1.30487340706945
  Cl          2.49758261567004     -1.82123762995158      1.29664726886543
  Cl          0.45479579627561     -3.31334758039713     -0.12468630445146
  F           3.91509088484523      1.89943563413996     -3.08314307110684
  F           4.87322754891726     -0.03266992614124     -2.93379571748555
  H           3.84126051598846      0.54912009729674     -4.53447623674913
