17
Coordinates from ORCA-job NEB E -37.964670058540
  C           0.69572949504792      0.61172055424691     -0.57307361504170
  C          -0.72327880182012      0.58299315534611     -0.31173843223786
  Cl          1.06732180784647     -0.20068227898701     -2.17710342219541
  H           1.09965992326539      1.61899295815366     -0.65420871170234
  C          -1.52872962750676      1.82180001156560     -0.08885134659219
  C           1.42174839561139     -0.21144690094980      0.54100819671276
  C           0.77127923216947     -1.48463855972651      0.68523687464107
  C          -0.58395136921067     -1.70303901605743      0.13715250890670
  O          -1.36640988925133     -0.57830853879731     -0.10107706675083
  Br          3.43095546202080     -0.41921713047705      0.10360077559079
  H           1.49233642914106      0.42023042915126      1.42485067047661
  H           1.36340020728573     -2.37584682306058      0.81010030410256
  H          -1.18527134835170     -2.32147524040407      0.81384385593677
  H          -0.48240641555350     -2.27372368485040     -0.80040119498426
  F          -2.83417252342243      1.61923112429978     -0.34050470152897
  F          -1.45863509530294      2.22023263336970      1.22518606990495
  H          -1.17957588196876      2.67317730717713     -0.69402076523865
