17
Coordinates from ORCA-job NEB_reactant E -38.012336749930
  C           2.39172439912746      0.20139040063485      0.68227832860412
  C           1.56648211489524      0.08494442656029      1.72457437240410
  Cl          3.35292882865178     -1.02695408297708     -0.04697479053517
  H           2.51640961892752      1.15870267372962      0.20401480206881
  C           0.84478479093973      1.33338429087431      2.20850804887947
  C           3.85701609673881     -1.21495123416160      3.49307771496059
  C           3.30622395290992     -2.19318576109854      2.79708258461095
  C           1.86304066120074     -2.20778547655733      2.38583635309680
  O           1.21812916129264     -0.95541421539066      2.50696724307384
  Br          5.67868679075338     -1.22646689716091      3.98342677442901
  H           3.33058733944590     -0.33780249001441      3.83465483765116
  H           3.87960377984868     -3.05501703384043      2.48932429074421
  H           1.29774074758262     -2.86320715992838      3.05869271544526
  H           1.76668520353202     -2.59933817452767      1.36756458998370
  F          -0.48294007584219      1.12031072955215      2.30202150941274
  F           1.27145372910529      1.65607409695135      3.45317106228556
  H           1.00834286089045      2.20521590735444      1.55877956288482
