17
Coordinates from ORCA-job NEB_product E -38.013727767370
  C           3.12236223690078      0.29469838591267      1.53806796917415
  C           1.65711647435787      0.46497250190273      1.19731661195506
  Cl          4.01413363928506     -0.18204377580687      0.06574438208847
  H           3.53683201937186      1.25193045754271      1.87213738407274
  C           0.81925072613844      1.14016826418582      2.31526450005942
  C           3.26964575366321     -0.75437785853906      2.64743462703236
  C           2.77533042715902     -2.10027212694704      2.24486309926802
  C           1.87458217638749     -2.77280199079896      2.93711980124523
  O           1.13006367992169      0.10532746838831      0.18881352326189
  Br          5.18065225907596     -0.87580502822246      3.13646550178122
  H           2.77629408321550     -0.40422872831140      3.55721632351241
  H           3.21719965873572     -2.50486278973318      1.34559292170341
  H           1.43305787397988     -2.37794578903228      3.83747777248263
  H           1.53779576097078     -3.74434944978445      2.62185332498517
  F           0.37934419996997      0.19183179768164      3.17543545987420
  F           1.56086886459026      2.00229764237279      3.04386659326194
  H          -0.05272983372349      1.67056101918903      1.90613020424168
