18
Coordinates from ORCA-job NEB E -43.880354227150
  C           1.13827167553811      0.10879736476756     -0.52287089025873
  C           0.66476914912055      1.39463748671159     -0.84610502898162
  N           0.73268777964686     -0.95538389752171     -1.45086782235737
  H           2.18082212509443      0.01642708261946     -0.22944389566248
  F           1.47216478719099      2.42320022234714     -0.47427338181067
  C           0.02187927919879     -0.24522752963750      1.00696850174433
  C          -1.26964730626948     -0.07564173778041      0.49446552904646
  C          -1.64159593474548      1.21448693706394      0.04555359441320
  O          -0.52518584967479      1.66919009124815     -1.12321821777373
  N           0.37889081943940     -1.59394159183054      1.45280945848755
  H           0.45523993942343      0.49816270826769      1.67090104548232
  H          -1.79160621863179     -0.94826672645215      0.12899010893692
  H          -1.47128825057489      2.05044146151573      0.71700998619894
  H          -2.56934036775585      1.28737639003866     -0.50623173397631
  O           1.60787755721791     -1.71096950648517     -1.78457237853648
  O          -0.41083391449348     -0.95464435433511     -1.82406270167417
  O          -0.03340546417763     -2.51784569261383      0.79975126052991
  O           1.06030019445292     -1.66079870792350      2.44519656619191
