18
Coordinates from ORCA-job NEB_product E -43.923051354210
  C           1.67175815773516     -0.94484325443974      1.99039854089057
  C           1.27927900293245      0.31839421199685      1.24963092045391
  N           1.41595954197114     -2.13740257495870      1.10061675078565
  H           2.75333892577412     -0.92599041806397      2.18405523356682
  F           1.74189483046045      1.39201710128898      1.93523946938664
  C           0.89208855565282     -1.00952237090877      3.31325568688739
  C          -0.59983817456538     -0.92487671445713      3.15860393623297
  C          -1.30402565496992      0.10387298266069      3.59065601177604
  O           0.65345960946866      0.44936052022023      0.26807523440919
  N           1.27360313770293     -2.27995531588793      4.04559246271873
  H           1.24137392701220     -0.18933871146920      3.95560102927851
  H          -1.06867047783912     -1.76901714391043      2.67536180262165
  H          -0.84969471331260      0.94904750181667      4.08259701955110
  H          -2.37091057865031      0.14121682211427      3.46466010690681
  O           2.04508431915109     -2.15507108753137      0.08295694523616
  O           0.62384088933788     -2.95078994196798      1.48464940694148
  O           2.36782342307610     -2.72130536369080      3.80811747997732
  O           0.47643527906233     -2.70129624281167      4.83013196237906
