16
Coordinates from ORCA-job NEB_reactant E -36.761161048310
  C           2.16063369943614      0.44699854595795     -0.04568131282530
  C           1.49553959424413      0.34710047269569     -1.18883223268107
  F           2.76189302772956      1.58479637357695      0.37211296264283
  H           2.28176472702776     -0.36537277019762      0.64921069362087
  I           0.61760550142479     -1.50262235014549     -1.66328852122026
  C           4.13770251236532      3.35334598927767     -1.75373065468658
  C           3.28704513765906      2.50174679463076     -2.30955358046620
  C           1.80803930793799      2.52253765434771     -2.10683813116888
  O           1.23539411125197      1.22644506328481     -2.16988720924096
  N           5.54705547200630      3.26966655466794     -2.02059599805713
  H           3.87096516203357      4.14875712019061     -1.07548775793179
  H           3.66931523521926      1.72811615153331     -2.96660981903128
  H           1.34080913627260      3.05698394027809     -2.94245193990990
  H           1.54023638243060      3.02789378148548     -1.17254463586318
  O           5.93897738686026      2.39142704857662     -2.75617666056819
  O           6.24742360610066      4.09647962983955     -1.48204520261296
