16
Coordinates from ORCA-job NEB_product E -36.773826391420
  C           3.12009025324050      0.65158076604562     -1.15219532244681
  C           1.64064915117809      0.35375066572660     -1.12087829559028
  F           3.59276162002140      0.60708689308814      0.13072657646544
  H           3.66039376355918     -0.11637984746776     -1.72605148098069
  I           0.85545116842693      0.05149461430988     -3.11450182589786
  C           3.39026818628975      2.04451041163599     -1.74696081173018
  C           2.80470388916971      3.14168337542631     -0.91367839589947
  C           1.88912871452017      3.97651680081429     -1.36746172328022
  O           0.94074731860876      0.28118647464085     -0.18020510055029
  N           4.89120595129787      2.20776840391491     -1.86719193007682
  H           3.00816685766824      2.07660418924008     -2.77423797391475
  H           3.17559686779839      3.20103412259960      0.09923323567437
  H           1.51461880074056      3.92535178883513     -2.37743265144986
  H           1.47720503138457      4.74841319776819     -0.74281949179000
  O           5.48746902524689      1.27433925057536     -2.33520226049538
  O           5.35334340084897      3.25565889284681     -1.51764254803719
