20
Coordinates from ORCA-job NEB E -47.120067408010
  C           0.66561293240047     -0.14052826120531     -1.33304176322713
  C          -0.72050299865439     -0.66152416399140     -1.29062776204713
  C           1.77138859043455     -0.71796352845531     -0.78647897118575
  H           0.75994305029907      0.84152068931595     -1.77775914996491
  O          -0.80388684151290     -1.94988136173482     -0.97762494493996
  C           0.09342975331387      1.16411902913195      1.05299034468023
  C          -1.00480789316524      0.45240764520484      1.54139353364257
  C          -2.28431756545454      0.74803484133201      1.20535317487476
  O          -1.67843188011171      0.03568682233729     -1.50065087502789
  N           1.38192388361485      0.88403914637801      1.48676961779050
  H          -0.00594207738615      2.04533850224044      0.43791103865753
  H          -0.78187401249529     -0.37249170796943      2.20797564498777
  H          -2.51324624449705      1.55686665531484      0.53306862485260
  H          -3.10932021331744      0.17676644605358      1.59224971537197
  Br          3.43403633341705      0.11232364995815     -0.92687397172804
  Br          1.79582487281997     -2.31540714083640      0.15074118488930
  Br          0.86843700513460     -1.12398265632207     -3.87794852938955
  H          -1.72160542137770     -2.26224327544565     -1.02136299513710
  O           1.57948203182350     -0.12214834886944      2.16050469520205
  O           2.27385669471447      1.64906701756277      1.12341138769818
