16
Coordinates from ORCA-job P E -25.273991437150
  C          -1.37140920267569      0.44189831877214     -2.29985846690481
  C          -0.03969156240966     -1.60326188940108     -1.09246176153799
  C          -1.42865765923005     -1.85957344474641     -1.58944740420186
  C          -2.07659693118421     -0.87006994666525     -2.18483127020521
  C          -0.77942956867049      0.84697502984921     -0.94320357929079
  C          -0.02885998582745     -0.31148924792480     -0.27422175668698
  H          -1.86060566377550     -2.83780599263126     -1.45614476453054
  H          -3.07599725004502     -0.96127225305823     -2.57529103858217
  Cl         -2.47761968901708      1.73143024338843     -2.86019933275401
  H           0.32766850830810     -2.43115958997072     -0.48541091747483
  H          -0.57740455896023      0.38081868162637     -3.05309846494746
  H           0.62872962322714     -1.49555084131057     -1.95306368324513
  H          -1.60587691842305      1.15109215022187     -0.29685126211568
  H          -0.46247945776844     -0.51013912740314      0.70522903579816
  H          -0.14292071981067      1.71975263471282     -1.08694543250767
  I           2.04123103626229      0.21946527454063      0.18123009918697
