16
Coordinates from ORCA-job R E -25.185987256200
  C          -1.14786067191548     -0.07520502816663     -2.92536331602145
  C          -0.02219093475369     -2.74179566629224     -2.07496972594454
  C          -1.19252056028127     -2.22716594190421     -1.70801146391559
  C          -1.73995970419933     -0.94501268944535     -2.10971132713349
  C          -0.99281261177773      1.84136337739913      0.16141654984673
  C          -0.38887503533892      0.68493739434725      0.31802024702408
  H          -1.82436287648403     -2.79137642004171     -1.03362862351782
  H          -2.70311772275588     -0.68767366510825     -1.68894826858367
  Cl         -1.85536566711167      1.43848304995483     -3.31486947091023
  H           0.30399654591791     -3.70055728501682     -1.71104575451368
  H          -0.19252795817625     -0.23722161966637     -3.39776200322773
  H           0.65373974861879     -2.23191095217892     -2.73825195181101
  H          -2.00622237930147      1.98134864487195      0.50197644674363
  H          -0.83885630258251     -0.17716506554043      0.77869568904666
  H          -0.52205888247444      2.68778604989697     -0.30806676063106
  I           1.58287501261598      0.31982581689082     -0.32107026645080
