24
Coordinates from ORCA-job NEB E -41.203378884880
  C           0.51856067400575      0.22561268720597     -0.34433671977036
  C          -0.43183877502388      0.91450994213365      0.41795497599864
  C           0.18836940288281     -0.16357301409328     -1.76550549741350
  H           1.54441998698537      0.56002479588800     -0.21765631320788
  C           0.07616726077984      1.81003413105056      1.54698597073512
  C           0.42688570782452     -1.56578197259033      0.59080027755280
  C          -0.64490921555950     -1.52000707390611      1.49072116821663
  C          -1.89332057812049     -1.13607019257962      0.97982422441468
  O          -1.65012841557490      0.52365662397566      0.50703874722278
  C           1.74551395059552     -1.72971994894978      1.09347633865247
  H           0.25782978673684     -2.08024808976728     -0.34833727327733
  H          -0.42600052768062     -1.30609412021820      2.52914104187586
  H          -2.71863295409625     -1.01463207181966      1.66671994189997
  H          -2.18513448938510     -1.52068373408423      0.00985637830028
  C           0.31786662774903      1.07019603620654     -2.66006582424792
  H          -0.83287280177833     -0.54251187102453     -1.82848553501507
  H           0.88081894964639     -0.92868476106882     -2.12210179412326
  H          -0.39724023007230      1.83254561232533     -2.36154754825217
  H           0.12725849556435      0.79830668484292     -3.69533981315992
  H           1.31828934241304      1.49034062907762     -2.59105519976276
  F           0.66441554978402      1.07223788649076      2.53050687118815
  F           1.02760542068943      2.66127790303387      1.09834020314937
  H          -0.73460156705751      2.39489646177854      2.00451771410250
  N           2.82067839869198     -1.84563254390759      1.46854766492093
