22
Coordinates from ORCA-job NEB E -47.666682495020
  C          -0.05556030265948      0.87881434577685     -0.61980416666497
  C           0.61353380764807     -0.20726240697799     -1.21724217779463
  C           0.55085478898972      2.08329090168656     -0.02502747775808
  H          -0.96327151078075      1.11901329283980     -1.16628996210637
  C           2.03106690784802     -0.63017970705382     -0.80879656908986
  C          -1.22095786377682     -0.14119288073950      0.92936812237437
  C          -1.16267542256101     -1.47225176445914      0.43664155949261
  C          -1.63390564929467     -1.82139432888799     -0.78120806410495
  O          -0.01761225525666     -1.01942229648823     -1.91701365086907
  N          -0.70572019692726      0.13677040702125      2.13690228862474
  H          -2.06192052657743      0.47672691464716      0.64163867448082
  H          -0.50850031948886     -2.15028729071991      0.96954520677031
  H          -2.30593935705785     -1.18200135245176     -1.32721340189935
  H          -1.52497886072355     -2.82419216146041     -1.15222745040080
  Br         -0.88655449235669      3.23308233244301      0.69827051420120
  Br          1.81592861814087      1.84198028480639      1.43300780631498
  Br          1.46960905049013      3.20216283455550     -1.42438328432270
  F           2.93138313353376      0.37301413358531     -0.88479702538653
  F           2.03152314227228     -1.06057694254872      0.48530038921161
  H           2.37483921064907     -1.45849515123059     -1.44286119111778
  H           0.05684758354922     -0.42381310726794      2.48520127947081
  H          -0.82798948566011      1.04621394292418      2.55098858057362
