22
Coordinates from ORCA-job NEB_product E -47.685324576980
  C           0.95572239452214     -1.36782203428362      0.58823385723178
  C           1.85257182596986     -2.52748276554899      0.16877829131054
  C           1.66903551746833     -0.03994977021991      0.75488628235732
  H           0.28949284153601     -1.24896789691486     -0.27978555720939
  C           3.09965199267194     -2.89657340517489      1.00134400714015
  C          -0.00176945653988     -1.72213143384331      1.78982946226799
  C          -0.35583304984716     -3.18532904641059      1.70470573156826
  C          -1.47920985976818     -3.63867540080085      1.18363939612226
  O           1.60995872211917     -3.15466821286000     -0.82221119650739
  N           0.57187434452072     -1.30770312817354      3.04698888694713
  H          -0.90694701436023     -1.12510749367940      1.62686877850855
  H           0.37894132037044     -3.86285930314499      2.11984975001062
  H          -2.22351075219092     -2.97606230291172      0.77280295976166
  H          -1.69939650904947     -4.69077633266827      1.14166766172694
  Br          0.35016183814689      1.37589496178999      0.96745446664936
  Br          2.91712074931193      0.12457081294527      2.22204906418282
  Br          2.68244250756167      0.33132709541337     -0.89873520207256
  F           2.82634468486880     -3.00778552684072      2.32071559451185
  F           3.55141132588490     -4.09785823682608      0.60309282830489
  H           3.91598262400034     -2.16566294622827      0.87410701283009
  H           1.17231418375962     -2.01580103846775      3.45245132031591
  H          -0.14056023095692     -1.06297659515087      3.72066660404122
