20
Coordinates from ORCA-job NEB_reactant E -54.689401943770
  C           1.71732186806818      0.10193543621302     -0.13707818677833
  C           1.55346108223107      0.31781533773907     -1.44119167126512
  F           2.41917182968834      0.90953161402119      0.67308770269302
  H           1.29720084959246     -0.74340904227194      0.38254640088868
  C           0.74113401138687     -0.67235381006056     -2.25469620694275
  C           2.78575563234080      3.21672059280363     -4.02844184914200
  C           3.15627026975600      3.31558940045444     -2.76283192834000
  C           2.78675654603983      2.34012983499760     -1.69656059459656
  O           1.99521995919645      1.30175439821957     -2.25127373152879
  C           3.17892160775692      4.22000536320149     -5.06558919766712
  H           2.17495173801097      2.40911796512719     -4.39975408053623
  H           3.76904428708930      4.13862639609421     -2.42175179809966
  H           2.23260655061256      2.86388877374640     -0.90601864748436
  H           3.70240078163190      1.92770068091758     -1.25193836438430
  F          -0.27826304950786     -0.07595806947770     -2.87863949522829
  F           1.48523571748168     -1.25881714668422     -3.19789793025404
  F           0.22153157209354     -1.65077782334034     -1.50581396466883
  F           3.94369042656865      5.21129524744317     -4.58530574981682
  F           3.87097817832689      3.65652146858367     -6.07020832527222
  F           2.10751014163546      4.80378338227253     -5.62894238157628
