21
Coordinates from ORCA-job P E -31.519422160730
  C          -1.12405071682379      0.41384750699345     -2.46518967334062
  C          -0.43285348923762     -1.70162378333633     -0.47880706687349
  C          -1.34156985031244     -1.92254851758738     -1.64985823598285
  C          -1.64807629214353     -0.99018588808089     -2.53399493252173
  C          -0.68330722724592      0.75338788372109     -1.03501982442373
  C           0.24692733908556     -0.33694370851063     -0.51292091692100
  H          -1.74603182068120     -2.92043259622891     -1.73939587682226
  H          -2.30781108830172     -1.20060828166765     -3.36213645429290
  C          -2.14406459062145      1.41965199728531     -2.98803528101289
  H          -1.00654651019901     -1.79055040206617      0.44830894989511
  H          -0.24546653221804      0.49009046531258     -3.12176206610217
  H           0.33779974979459     -2.47685837396390     -0.46148303402315
  H          -1.55458333882268      0.80330343865091     -0.38023729957998
  H           0.63769514503595     -0.07273359381265      0.47914607672033
  H          -0.16197595153685      1.71071693777649     -1.00849957101254
  F           1.36146378331173     -0.39693297735964     -1.33473930252652
  O          -3.23053578977017      1.09624563881741     -3.39226361340970
  C          -1.69007533481782      2.85869140173532     -2.96550739662273
  H          -0.63242082926985      2.94796261605094     -3.19569770091439
  H          -1.86579959871567      3.26541384565278     -1.97066285293372
  H          -2.27766705651007      3.43683639061787     -3.67426392729907
