21
Coordinates from ORCA-job R E -31.427793660880
  C          -1.28098414984756     -0.03632796302879     -2.73973909412832
  C           0.00429551490304     -2.73041357015024     -2.23352500634515
  C          -1.28005897746712     -2.42789275406732     -2.06177466849143
  C          -1.83298479239575     -1.09292571612668     -2.12577090201424
  C          -1.10956922580568      2.01033297081536      0.48076998749542
  C          -0.37679296605155      0.95414528764965      0.21044726391205
  H          -1.98728107645146     -3.21331536313189     -1.82653620998897
  H          -2.78952896930669     -0.93901857999907     -1.63980531695243
  C          -1.91778617047199      1.28747063186365     -2.69835843481725
  H           0.35941492289415     -3.74432620980982     -2.16646049675139
  H          -0.34455298631477     -0.11379912861831     -3.27075993031485
  H           0.74689753990828     -1.97463446846560     -2.42558847486670
  H          -1.95935500664524      1.93280734262242      1.13081497990371
  H          -0.51722240766854     -0.04659120465638      0.59106251520322
  H          -0.89433708818131      2.97147998489060      0.04930784147222
  F           0.68779515695235      1.01992947472732     -0.61222096099512
  O          -2.98648936198079      1.49045309503332     -2.16093774174347
  C          -1.12005866651914      2.37984798659835     -3.36600696743395
  H          -0.13729744372343      2.44185176060224     -2.90223520618412
  H          -1.63215341368758      3.33374305844609     -3.27383367194860
  H          -0.98272043213925      2.13953336480512     -4.41853950501064
