18
Coordinates from ORCA-job NEB_reactant E -40.741785634760
  C           1.51933097599775     -0.42175169493941     -0.23681827340181
  C           1.12129014924036     -1.18917040658328      0.77699813372081
  Br          1.15630451432492     -0.64611683943270     -2.07384061673368
  H           2.09943233426433      0.46780273820740     -0.05915652956304
  C           1.45256981778708     -0.83596970496324      2.20181837959139
  C           2.04970732373115     -4.01314007202125     -1.92696061534032
  C           1.71186503218863     -3.73166028523302     -0.67079480297941
  C           0.35756031225606     -3.24694510023473     -0.26293256930842
  O           0.41452228323305     -2.33951148846208      0.82984362709930
  C           3.32974318578354     -4.49390924046318     -2.26796245782629
  H           1.36048227333132     -3.88432420213543     -2.75142094105162
  H           2.42254093511882     -3.86539936020826      0.13548425067719
  H          -0.22082765103403     -4.08400692110795      0.14718727146277
  H          -0.19794414773794     -2.82441561055434     -1.10540287922403
  Br          2.24132098594939      0.89879353087302      2.49162818117101
  Br         -0.18369638741413     -0.94130712188339      3.26199380398024
  Br          2.70062648160724     -2.20129247029080      2.87335629397419
  N           4.36897158137243     -4.88377575056738     -2.55252025624828
