18
Coordinates from ORCA-job NEB_product E -40.741494216370
  C           1.63279621450522     -1.86738489804054      0.19770984840764
  C           1.88638922715413     -2.31144574320185      1.61817379565650
  Br          3.09752555287532     -0.72709867945967     -0.43419629651255
  H           0.73832627456838     -1.23492089020612      0.17026272861540
  C           2.19175061183153     -1.25355659947651      2.66653558847184
  C           1.44356239876804     -3.08413202213485     -0.72054707488719
  C           1.03902559059419     -2.67521033422745     -2.11352287853691
  C          -0.08765704529039     -3.05923898291403     -2.68017308794200
  O           1.83999967808007     -3.46121699164101      1.95049071009506
  C           2.67759289593360     -3.84592906421963     -0.77945743253299
  H           0.67151108217567     -3.72699996437720     -0.27707874567935
  H           1.74616756607835     -2.04469896163347     -2.63440489037309
  H          -0.79664148780374     -3.69749182051221     -2.17777026541460
  H          -0.34525350924355     -2.75170829585699     -3.67826185492701
  Br          1.47942633780767      0.50061066980375      2.29188188418993
  Br          1.48095958787538     -1.86632712118153      4.36759362691146
  Br          4.14480602035165     -1.18188875963096      2.79326164463807
  N           3.66201300373846     -4.41956154108973     -0.83969730018022
