20
Coordinates from ORCA-job NEB E -49.562627983560
  C           0.42587204930123     -1.12329130820680      0.15742843792213
  C          -0.91349345535971     -1.30411748148743     -0.25632750376866
  C           0.70152812557894     -1.20828740808379      1.55637658790929
  H           1.17622760235971     -1.61664388270060     -0.46254216584068
  N          -1.11458448855191     -1.69657227954824     -1.64678146151741
  C           0.58940746154224      0.74091024523456     -0.17503989807507
  C          -0.49656586693037      1.28183941998608      0.52225528858578
  C          -1.82399993021107      0.88232944009511      0.13299712963161
  O          -1.88854916916162     -0.66108843613570      0.30411678298103
  C           1.98173727702325      1.15794166905680      0.25990650354114
  H           0.54611328063438      0.69221915640405     -1.26127843721103
  H          -0.33635206639855      1.63481942332068      1.53134151655409
  H          -2.07285741050197      1.01305309494347     -0.92158145874751
  H          -2.61988035276969      1.23870410422480      0.77835107936087
  N           0.89530518037830     -1.29456181309732      2.67843312307060
  O          -2.16853715485129     -1.37836969006595     -2.15004587184167
  O          -0.20530864762875     -2.28702965116046     -2.19431658117697
  F           2.90970843879833      0.25387308903599     -0.07497880050423
  F           2.32627199531141      2.30323370553742     -0.34915875374489
  F           2.08795713143714      1.37103860264732      1.57084448287158
