20
Coordinates from ORCA-job NEB_reactant E -49.596292264010
  C           2.23739602160515      0.39508576941647     -0.32268600810827
  C           1.54093240774515      1.02261542607341     -1.28534479503390
  C           2.51202722708425      0.88073814409819      0.96258575182454
  H           2.63343842029204     -0.58710156418536     -0.55166334241259
  N           1.38176590343483      0.32981842191228     -2.58284207485026
  C           3.29376822142154      3.68793428968849     -0.84410184486473
  C           2.30809160623382      3.67220680981624      0.03772788671409
  C           0.96439544097507      3.05994925779403     -0.21223542197531
  O           0.92388122631550      2.19821485336037     -1.33361717443887
  C           4.62891801860108      4.30073715721699     -0.55787404209736
  H           3.22018465014141      3.26338372043672     -1.83468161359852
  H           2.42760276614160      4.12303543916335      1.01248082908227
  H           0.24369576155187      3.85122382828686     -0.44590937544028
  H           0.62291196368263      2.53428254102863      0.68725291456178
  N           2.75683968457344      1.24705752073340      2.02228963434023
  O           0.82530808273143      0.94241308686666     -3.45427257031748
  O           1.82693894640738     -0.78960049152090     -2.66262092980610
  F           5.60285031882248      3.37331861036646     -0.55788413693693
  F           4.96937323945773      5.20399550796533     -1.49102960547211
  F           4.68728009278158      4.92349167148237      0.62322591882981
