22
Coordinates from ORCA-job NEB E -42.044505083360
  C           0.37018577132415      1.60050860269590      0.41227681545753
  C          -0.03391741332308      0.43428127297158      0.94896901810057
  C          -0.18805215739001      2.37110857266392     -0.72218864566342
  H           1.22303896232771      2.04356525017855      0.89528751281753
  O           0.62069992649244      0.03285836160476      2.05403524791832
  C           0.77840524823696     -1.47110540329614     -1.32784818462016
  C          -0.50660935701810     -0.96474114972025     -1.69556890081492
  C          -1.51261160565506     -0.48085768031278     -0.71684630388171
  O          -1.04148321433015     -0.40025380575596      0.61017533912610
  C           1.90620846803625     -0.70745623363662     -1.22989114819644
  H           0.89757256396554     -2.53207339569353     -1.13466234112959
  H          -0.80597042330849     -0.91310790607322     -2.73486653394960
  H          -2.34451866952360     -1.20197269006562     -0.65892695547492
  H          -1.95845672187215      0.46300444214779     -1.05604195090041
  F          -0.07424180549482      1.75058138436869     -1.93901653819672
  F          -1.53502739089128      2.60443271427900     -0.59759703516377
  H           0.29899687443312      3.34972278066672     -0.82100096047605
  C           0.30577732170109     -1.23611830371733      2.59796686910108
  H           0.98471181396421     -1.36204693364938      3.43825641267446
  H           0.47042124758068     -2.03126467955609      1.86674072142593
  H          -0.72934076467555     -1.27314386621640      2.94508604001580
  N           2.87421132542014     -0.07592133388360     -1.13433847816961
