22
Coordinates from ORCA-job NEB_reactant E -42.149503504170
  C           1.71730815225290     -0.23975891950480     -0.16215062963151
  C           1.26547141093743     -1.42415891158532      0.29271171562284
  C           1.45595533688503      0.45377874548800     -1.44466222137435
  H           2.31207231440990      0.31235805143077      0.54462922395387
  O           1.58919142299925     -1.71977944982591      1.56864150936840
  C           2.11830947700633     -2.96709792866754     -3.50973786724076
  C           1.76357298846614     -3.06399306986761     -2.23060742149199
  C           0.46277313578493     -2.56669214268316     -1.68403264204956
  O           0.50889663132984     -2.37740639075782     -0.27894967673678
  C           3.33471200768188     -3.48880206699417     -3.98882460535641
  H           1.49140162591363     -2.48029666221066     -4.24417980499762
  H           2.41932048561557     -3.54319985367680     -1.51506626884027
  H          -0.30306831367282     -3.34311132678300     -1.80865110612275
  H           0.11694444743958     -1.67523761864493     -2.21088841874489
  F           2.03457036507082     -0.14503170910858     -2.53373751798054
  F           0.12540274841857      0.51326387956212     -1.76223543354570
  H           1.82563359058357      1.48791498248161     -1.42242189045316
  C           1.14218377455130     -2.95184964135317      2.10767705203996
  H           1.52449883462991     -2.97183998679260      3.12573247269316
  H           1.53884059606059     -3.80072248137504      1.54570646950586
  H           0.05156388151519     -3.00596575084408      2.11709292857292
  N           4.31634508612046     -3.92787174828731     -4.38664586719072
