22
Coordinates from ORCA-job NEB_product E -42.177324318740
  C           2.53367118404041     -1.84358078248511     -0.92508356999593
  C           1.62299991879686     -2.53312027717618      0.09646257443531
  C           2.42115347690425     -0.32457155183204     -0.76771247485549
  H           3.56702580925000     -2.11668592098872     -0.67636493897029
  O           1.65310632855633     -1.89926640899429      1.26472404132502
  C           2.20914846286118     -2.35902245503788     -2.34939921607414
  C           1.01294084023534     -1.67782640686953     -2.96911692285029
  C          -0.17917046785102     -2.23842516126413     -3.01830295753652
  O           0.99248067006463     -3.52825423401844     -0.12261684956896
  C           3.36309060095253     -2.19883532944346     -3.20637257883491
  H           1.99989641560475     -3.43290441242306     -2.25457493915143
  H           1.19037803760557     -0.69070457195430     -3.37219886701702
  H          -0.36294339921732     -3.21988664139655     -2.61262599707644
  H          -1.02119079748196     -1.72952993984526     -3.45395367177111
  F           3.05918408173040      0.32233850423888     -1.76681651795541
  F           1.13196985543659      0.08655138302690     -0.81052417942885
  H           2.84531603778703      0.02400739838728      0.18620220940307
  C           0.83728174348254     -2.44737116718402      2.29802398477045
  H           0.93790536259697     -1.77754467351921      3.14729711901488
  H           1.17998422234742     -3.45109065601198      2.55499103813806
  H          -0.20113947870191     -2.49927347078645      1.96788488663489
  N           4.27151109499940     -2.07390322442245     -3.88742217263490
