20
Coordinates from ORCA-job NEB_reactant E -51.518371309460
  C           2.65587337898084      1.45918249350463      0.15624081848583
  C           1.67435753460253      1.91893006642115      0.93430022146506
  Br          3.78896191588409     -0.02181482008541      0.42994140242288
  H           2.87659310310107      1.95456129506964     -0.77565361265348
  C           0.92394115123940      3.14768039421356      0.47956700618085
  C           3.64906225068628      2.26264013033130      3.35677141530918
  C           3.24458359715829      1.00157401187136      3.34738319825832
  C           1.86241372261599      0.58568911352913      2.94490612398143
  O           1.19451104970545      1.53615792897408      2.13379345502495
  C           5.02758906215677      2.72729939592001      3.64800383350792
  H           2.98050777130515      3.07496598320031      3.10603601727675
  H           3.91013026288563      0.19608055204386      3.61717634835805
  H           1.22113359583639      0.50762701100106      3.83000348436606
  H           1.88534714635911     -0.39253448281451      2.45400966674305
  Br          0.48998382589632      3.11933029323382     -1.41282033447739
  Br         -0.72669131953192      3.34593086467352      1.46132917273862
  Br          2.03397832282030      4.74508170187116      0.82689659745245
  Cl          5.71325391923336      3.39972134727869      2.13013144779481
  Cl          4.98180224024962      4.03313106067462      4.86342911337298
  Cl          6.10446746881535      1.45266565908804      4.22775462439168
