25
Coordinates from ORCA-job R E -32.119695260960
  C          -1.32133652239677      0.02188485390002     -2.89622910019501
  C          -0.42780644300135     -2.82608008948456     -2.47389497858576
  C          -1.44404485041587     -2.22654803475857     -1.85757949431627
  C          -1.94922618395630     -0.90485455912314     -2.15374889666986
  C          -0.94587821333756      1.58281490501313      0.11916857819321
  C          -0.19029926388294      0.51092850709698      0.33682684550523
  H          -1.95790230987338     -2.74855947449388     -1.06099106857460
  H          -2.89970927196874     -0.64769481474866     -1.70528299121148
  C          -1.86661734329606      1.29271420162282     -3.13216589905370
  H          -0.09563583794162     -3.81330970404867     -2.19581899258205
  H          -0.35723513117406     -0.15489877393145     -3.35555699384403
  H           0.09362091769793     -2.37478728551222     -3.30378854436336
  H          -1.94516730038390      1.62693768599515      0.51122995451174
  H          -0.59473787039247     -0.32575779080638      0.89341934486416
  H          -0.61976054766273      2.44217010954186     -0.43599556884255
  N           1.13104332612376      0.33092931552753     -0.01000073189732
  N          -2.28903984374424      2.34007289319624     -3.33848412374989
  C           1.60468250146596     -1.01604512469077     -0.20104777031598
  C           1.76552659714774      1.32346284933502     -0.83806416948022
  H           1.12460330986123     -1.67358645932199      0.52205693878468
  H           2.68361876348837     -1.04736195391329     -0.04127044412030
  H           1.38735195985339     -1.39842760534060     -1.20982668154290
  H           1.62353226967220      2.30824720608819     -0.39628410622027
  H           1.36604693454448      1.34280657545893     -1.86072726751096
  H           2.83395035357294      1.11433256739833     -0.88268383878253
