25
Coordinates from ORCA-job TS E -32.106169974490
  C          -1.52706253020454      0.67596404300928     -1.27986505204156
  C          -0.25818146371593     -1.77932009747112     -0.56773175201027
  C          -1.59852694307181     -1.68651495069343     -0.75341079585379
  C          -2.24183356995537     -0.50950357113534     -1.16425937802222
  C          -0.88419404308877      1.05375996559042      0.66083515330503
  C           0.03504708152112      0.11251367138897      1.07801144325619
  H          -2.22702765494261     -2.51095484215685     -0.44240536247890
  H          -3.32079317677879     -0.46655728672580     -1.13140914901183
  C          -2.21823717578554      1.86368358508010     -1.60304939735502
  H           0.17257531419793     -2.66942564939354     -0.14027449262756
  H          -0.51068413527731      0.65576659211790     -1.64983593568492
  H           0.43157557549689     -1.10954193636959     -1.04627105441122
  H          -1.86554290501117      0.99835095029860      1.09971033800377
  H          -0.29865145980537     -0.70782172876677      1.69342372200628
  H          -0.55953425740115      2.05245727821249      0.41970627985642
  N           1.39490272468879      0.24300604613057      1.01584679170855
  N          -2.76845301890700      2.83722998589120     -1.86053351002748
  C           2.22344443523829     -0.85907353236764      1.43160345832020
  C           2.03508557869189      1.13200495630931      0.08046909084381
  H           1.71109130271280     -1.44532169502789      2.19076838512940
  H           3.15042266659333     -0.47101244195718      1.85755160748304
  H           2.47998331114662     -1.51771787367526      0.59249881870511
  H           1.41722483170053      2.00630271425383     -0.10182487076119
  H           2.24047768230788      0.63860290157148     -0.87871725864820
  H           2.98689182964926      1.46312291588626      0.49916292031632
