17
Coordinates from ORCA-job NEB E -40.646313445990
  C           0.99865954762130      0.15540054883977      0.46197219484721
  C           0.15828486751267     -0.61554792923969      1.28002854684166
  C           0.89978935923589      1.65931518343670      0.60585266185944
  H           2.04439040748326     -0.14078840576084      0.42955010321627
  I           0.91871975107038     -2.56880961054606      1.80579887473585
  C           0.28202987654936     -0.46824412287452     -1.25379373275514
  C          -1.09521872158950     -0.28245418192389     -1.14598771660624
  C          -1.78748652928501     -0.97182557651749     -0.11295185366084
  O          -1.09849718793978     -0.47556881647961      1.29073720297234
  I           1.26651540387664      0.45045141900341     -2.89198325892404
  H           0.67992308051330     -1.46869070182227     -1.12980963624811
  H          -1.55046387901304      0.59395359231081     -1.57846338716676
  H          -1.60187359086671     -2.04084444466106     -0.02204866244128
  H          -2.83066947142135     -0.71465473999582      0.02306356323150
  Cl         -0.65990512228186      2.36820750314052      0.18982073191259
  Cl          1.19935984255014      2.03261732324251      2.35263911016823
  Cl          2.17644236598432      2.48748295984755     -0.30442474198268
