17
Coordinates from ORCA-job NEB_product E -40.692025136490
  C           1.58289546577113     -0.38683976387388     -1.52924478373121
  C           0.89144507484245     -1.00344692223893     -0.33092669518728
  C           1.26065186431434      1.10824822102435     -1.59743804107870
  H           2.66579332695489     -0.46329273224916     -1.38755763785196
  I           2.05224274003631     -2.62585421253734      0.51380162415341
  C           1.18013869337289     -1.25407644443454     -2.74394583799630
  C          -0.09518954380023     -0.88148791882201     -3.41241604179348
  C          -1.17273920485599     -1.64412354766038     -3.36439280787013
  O          -0.16548117834794     -0.74923779478249      0.11963802042731
  I           2.77947568816158     -1.30996584195266     -4.22869935369787
  H           1.12678640226106     -2.29106754002349     -2.40173970677348
  H          -0.08691077747163      0.03721074272037     -3.98011161900037
  H          -1.19490265786720     -2.57185570168542     -2.81549246214205
  H          -2.08171245954328     -1.36282069146622     -3.86540159991939
  Cl         -0.47337883772773      1.48106646729179     -1.65032242314831
  Cl          1.93321995004966      1.85448820418487     -0.10616003225426
  Cl          2.04986545384968      1.86635547650513     -2.99279060213596
