19
Coordinates from ORCA-job NEB_product E -34.738921610250
  C           1.23314873556941     -1.10250100943092     -1.33649176502252
  C           2.04075868344458     -2.17719066018583     -0.61602168656524
  C           1.94669354714821      0.25556401567698     -1.26282624049144
  H           0.28770736682089     -1.01530404455069     -0.78559397098600
  C           2.59289104616502     -1.70909046667717      0.64598752641041
  C           0.90744321851476     -1.53855380550709     -2.78597701071239
  C          -0.43055287272303     -0.98545135602410     -3.20550651354265
  C          -1.50647133791319     -1.72678990741133     -3.38664546889026
  O           2.17489139670554     -3.30808403506232     -0.99435386760055
  O           1.94264239584264     -1.06691037508233     -3.62119959063669
  H           0.86827366521104     -2.63872828339673     -2.80138181955961
  H          -0.44925604927263      0.08268819002855     -3.37342674526065
  H          -1.49141173133194     -2.79346572346399     -3.23177398267531
  H          -2.44741930563233     -1.30059018846870     -3.68911878786062
  F           3.29730442966294      0.11443259555546     -1.42167684687036
  H           1.79738990521678      0.72659725176639     -0.28478796642574
  H           1.60224174871832      0.91506621139888     -2.06337948870188
  N           2.99340971823257     -1.34503528748415      1.65385168065589
  H           1.85821543962043     -1.46935312168090     -4.49047745526438
