19
Coordinates from ORCA-job NEB_reactant E -34.756066353640
  C           1.84705008407064      0.02938478210836      0.12366523087143
  C           1.16034523386975     -0.97175580251820     -0.44913166000032
  C           2.43584385094390      1.14580845394025     -0.66925241814452
  H           1.98868097430211      0.05286567115893      1.19146156326500
  C           0.62318792767462     -1.99928239227460      0.37097750032202
  C           0.81222652492959     -2.75591580505549     -4.66917781643778
  C           0.18997546203527     -1.96995423565767     -3.80049858323467
  C           0.28825737268485     -2.14439073998197     -2.32165946575558
  O           0.96778329507625     -1.00573663842219     -1.79402034229406
  O           0.76630164471207     -2.64794982425892     -6.00991257419013
  H           1.41607369272789     -3.59855407261634     -4.36319282928096
  H          -0.39949157912818     -1.12822679829915     -4.13698160713304
  H           0.84125094224441     -3.05997753216966     -2.07761152818501
  H          -0.71343927402564     -2.21051595428117     -1.87267569450671
  F           3.40717639013226      1.79177555902941      0.05006131404634
  H           1.67777023480044      1.89983766245955     -0.92185525216369
  H           2.89647232166156      0.77778181696228     -1.59330287683471
  N           0.19065438209096     -2.82730828331088      1.03599012540837
  H           0.22848051919726     -1.88728586681255     -6.26668308575198
