23
Coordinates from ORCA-job NEB E -49.363896767040
  C           0.22308627479953      0.25058301923288      0.93582978991108
  C          -0.58394061584589     -0.89632086092926      1.04932971501632
  C          -0.40300913271185      1.60545932034715      1.22190202789391
  H           1.18807646232172      0.19194978561046      1.43569695392234
  C           0.07618191852630     -2.20850509953885      1.42610540406914
  C           0.63286028709109      0.22140312517595     -0.93154707186122
  C          -0.63895574508057      0.14107796715450     -1.50905525587326
  C          -1.47106558311983     -0.98188112672147     -1.19519358384210
  O          -1.70477124086076     -0.96078285325255      0.37543435351461
  C           1.51823749500338      1.39705521979799     -1.28428941021961
  H           1.22158361784459     -0.69003096346503     -0.88493955711953
  H          -1.10874615697642      1.05168585082473     -1.84873239816801
  H          -1.01449717286556     -1.95945634152204     -1.34087130061011
  H          -2.48126779850808     -0.93790945233596     -1.58550935850916
  F           0.54199507426218      2.57569387323424      1.20537393183997
  F          -1.36304959233151      1.98053026301727      0.36104519046210
  H          -0.84671853582118      1.60944588747779      2.23297295630719
  F           0.93498576536208     -2.64606306527235      0.45018074214724
  F           0.84005749696957     -2.06389208497630      2.53342993291906
  H          -0.65790088121099     -3.00683897335762      1.60160333008718
  F           0.79500984134437      2.50836575346755     -1.61357702866473
  H           2.11414907304960      1.14039137042584     -2.16974770231706
  H           2.18769914875823      1.67803938560508     -0.46544166090535
