23
Coordinates from ORCA-job NEB_reactant E -49.396361174110
  C           1.61477493957673      0.14110125795684     -0.35129761386811
  C           1.56448003867814     -0.93742725456715     -1.14415289774530
  C           1.21962991301201      1.56097927889618     -0.59832018082298
  H           1.98232488545643     -0.03469163198808      0.64778627160545
  C           2.00637410850388     -2.25546530017142     -0.51566147905127
  C           2.44106899779600      1.59265386457173     -4.36322910428256
  C           2.25174236216114      0.35814485223092     -3.93222748969451
  C           0.95969378516981     -0.14684962652083     -3.36471571665555
  O           1.17780830766268     -1.17504265567756     -2.39988613919278
  C           3.71840307063961      2.09258807648048     -4.95293543891224
  H           1.66195554192929      2.33855614272470     -4.30508398273551
  H           3.04493064985619     -0.37394944166132     -3.99241260348973
  H           0.39073927958074     -0.65926201437667     -4.14952345647276
  H           0.34512505536642      0.66364230706723     -2.97295310787414
  F           1.99098970895824      2.18227355824786     -1.53267739909500
  F          -0.06073944029035      1.68076263860719     -1.05345266988749
  H           1.28741386232389      2.15741087918933      0.32301157258530
  F           3.30889485981619     -2.20081379205309     -0.15208096288566
  F           1.31476921636357     -2.51113324279522      0.61842005949745
  H           1.87100788170223     -3.09955538037336     -1.20631193095594
  F           4.65594553744498      1.10007299004861     -5.07862695271738
  H           4.15820028451847      2.86801353555734     -4.31347974906290
  H           3.55316715377373      2.50139095860632     -5.95768902828637
