23
Coordinates from ORCA-job NEB E -36.689923818050
  C           0.15119999237258     -0.87395357644640     -0.58106751139162
  C          -1.15268519834887     -0.40427759456113     -0.80239600217532
  C           0.34803285889261     -1.99513821199994      0.40968741762138
  H           0.77478737331175     -0.96726196277896     -1.46682828022480
  C          -1.45030778957957      0.34785030248372     -2.08588565287983
  C           0.83238401897277      0.68389703735270      0.32578558674862
  C          -0.05762534237933      0.85425753001091      1.38744938520342
  C          -1.43366578442808      1.08804923656240      1.07315823210121
  O          -1.91148831592529     -0.17867393286284      0.23827358737658
  C           2.28998934429891      0.42328230814415      0.62367755846403
  H           0.72952491975358      1.36941217103003     -0.51282494282352
  H           0.17886100156244      0.39926225514897      2.33832919774646
  H          -1.63247095219636      1.90433292616637      0.38067186280092
  H          -2.11965717214469      1.09631922550961      1.91236912695419
  H          -0.31625243781145     -1.86889402562492      1.25951868962891
  H           1.37545119582144     -2.05659550141840      0.75568011564264
  H           0.09965570269287     -2.93658809192233     -0.07952020571730
  F          -2.78716102813889      0.60991969430154     -2.20543295572666
  H          -1.15156432743693     -0.23231176952271     -2.96471875203481
  H          -0.94064776346119      1.32573990935540     -2.10098138747858
  F           2.96906064931629      1.62176368333196      0.62910302528808
  H           2.76908213119377     -0.18974895358438     -0.14692026592044
  H           2.43549692366164     -0.02064265867575      1.61287217079644
