23
Coordinates from ORCA-job NEB_reactant E -36.723639542260
  C           1.72146865835403      0.30775375672047     -0.01385290602009
  C           1.39310865648069      1.55721037415911     -0.32774945988771
  C           2.20480421440025     -0.30708074729282      1.26441050722905
  H           1.61889360587747     -0.39824614311925     -0.82603608874567
  C           0.93573065958619      1.91395741226128     -1.72799602037396
  C           4.02796112161914      2.85353300609953      1.32647690294346
  C           3.02418967771909      2.74284071989207      2.17964393065088
  C           1.57458457238429      2.71793287883528      1.79164815008397
  O           1.34281536649667      2.71813040254820      0.40109053957759
  C           5.47065590396725      2.88020351253048      1.71213016085448
  H           3.85432953342557      2.92225572698787      0.26229164607269
  H           3.20779852387208      2.68031790347606      3.24334267129785
  H           1.10110456613861      3.64146771809117      2.14942270859004
  H           1.06649441284042      1.87420279839778      2.27280951815282
  H           2.80624946264297      0.37422338098198      1.85897686573048
  H           2.81183043098472     -1.17888132024183      1.02889788125035
  H           1.36339395057428     -0.65034687938812      1.86887515571410
  F           1.30729752423042      0.97804980117530     -2.65400745824294
  H           1.37921081521645      2.86883707417977     -2.02844827024854
  H          -0.15714414011414      1.99158743491752     -1.77195707257830
  F           5.64654332134715      2.76998613752082      3.06877353750453
  H           5.93991343374039      3.82405971929384      1.40723736552325
  H           6.01296572821599      2.04360533197349      1.25341973492166
