21
Coordinates from ORCA-job NEB E -48.489545378900
  C           0.67513941949384      0.50541928399544      0.83157711529340
  C          -0.70099391777632      0.70736781476902      1.24839540670314
  N           1.34013275998888      1.59584123656891      0.32601299923734
  H           1.27726915411491     -0.07610629428116      1.52957389751340
  N          -1.19475783597695     -0.24086588679224      2.24818904318052
  C           0.26288444504853     -0.72777857783769     -0.48515463124214
  C          -0.67946287900395     -0.09565419288717     -1.34479223702724
  C          -1.96790500136926      0.15045113770499     -0.89303706133424
  O          -1.54349603383532      1.24617095647355      0.49703003724195
  C           1.59081256991831     -1.07256114789610     -1.11942641497268
  H          -0.08854065952322     -1.57419447087186      0.10091507446578
  H          -0.29137512428894      0.49078077852175     -2.16679127063861
  H          -2.48128390285420     -0.57211837782370     -0.27290158413671
  H          -2.61817565240020      0.77083412008428     -1.48926820909850
  H           2.28536930405468      1.45881028071421      0.00622450690041
  H           0.79153260397639      2.21722331374181     -0.25048781236990
  O          -0.37244017017437     -0.79807240074023      2.95124564389665
  O          -2.39418492726365     -0.40668522760360      2.29661180935449
  F           2.54587417768444     -1.34468615342223     -0.21925988295229
  F           1.48861976212976     -2.15140662245451     -1.90602442403300
  F           2.07498190805662     -0.08276956996348     -1.88863200598176
