21
Coordinates from ORCA-job NEB_product E -48.506589001140
  C           2.21267108851429     -2.14326243520024     -1.29641973412954
  C           0.75075936706322     -2.48502486047497     -1.09808947808744
  N           2.32261781645019     -0.73454865112602     -0.97737894461339
  H           2.85248272806572     -2.69880710485243     -0.60320464171088
  N           0.40892962929494     -2.82492322075477      0.36043822251648
  C           2.64129731074349     -2.40098236436315     -2.75332797371458
  C           3.90949086368772     -1.66338828617712     -3.08700183514653
  C           4.04022586114684     -0.89039664770905     -4.14675846794307
  O          -0.14569697249987     -2.35969660127865     -1.86728765217579
  C           2.86420024205815     -3.89931293936117     -2.94424566973204
  H           1.83517980620634     -2.10651792021919     -3.43412690108425
  H           4.72472547183677     -1.82005066298211     -2.39664138007902
  H           3.23329802969712     -0.73197803237581     -4.84295482683214
  H           4.96533925003857     -0.38641078705491     -4.36212268123738
  H           2.20586232074468     -0.56244631033345      0.01352926373262
  H           1.69283545983304     -0.15885661807549     -1.52225412571361
  O          -0.62054840506751     -3.41113838189567      0.54115551423093
  O           1.21394506549158     -2.47668970164900      1.19550703205950
  F           3.90058916602539     -4.35423521170966     -2.22579377922827
  F           1.79947111743698     -4.62384352273743     -2.55818232048151
  F           3.10472478323233     -4.21348973966972     -4.21903962063010
