21
Coordinates from ORCA-job NEB_reactant E -48.521221597120
  C           1.33247515904578      0.07936407660766     -0.04466563083558
  C           1.73648573439368     -1.14197326466251     -0.48082293541363
  N           1.01346702570033      1.09584295862869     -0.85971753162880
  H           1.27788160449470      0.24401743213666      1.02188313375100
  N           2.05795079629634     -2.15204938767781      0.45939270143161
  C           3.09060999458641     -3.64493722922149     -4.18534721917164
  C           2.76623325062141     -3.30428523336190     -2.94961840531167
  C           2.95112297065893     -1.92640847873477     -2.39736202064490
  O           1.73169600852989     -1.46512296160866     -1.81148117885741
  C           2.91603793776964     -5.02750906206138     -4.72682988918562
  H           3.51801926692042     -2.95675353256642     -4.89994293074083
  H           2.33880278376494     -4.01622159922906     -2.25630882587462
  H           3.22125042310835     -1.22030604203722     -3.19134282015090
  H           3.75725724547137     -1.94858656975788     -1.65604575749993
  H           0.57200088796243      1.92166607515211     -0.49914311449596
  H           0.97487467996223      0.91492362227948     -1.84976263738162
  O           2.32485021968852     -3.26290773181258      0.03268059969671
  O           2.06427324082603     -1.84662583517371      1.64229057539894
  F           2.33998086483031     -5.87700136108045     -3.87235611990571
  F           2.15973420353344     -5.03077757065067     -5.84187840000987
  F           4.09389570183484     -5.57684830516811     -5.08232159316958
