20
Coordinates from ORCA-job NEB_reactant E -29.433622813740
  C           0.95527508696636     -0.39265200709122     -0.18098066918723
  C           0.66983295771189      0.13676890685547      1.00542396044254
  O           1.66400557929869     -1.55294089948565     -0.34342139801073
  H           0.61231443868040      0.09791593726906     -1.08371940370580
  H           0.06206899200259      1.03411431694786      1.05311350909406
  C          -1.24344017603435     -1.65282793307289      4.29136197626626
  C          -0.95842215552715     -0.72126334072216      3.38562744623854
  C           0.35192606013532      0.00017392843123      3.32772718633731
  O           1.11904265112076     -0.36153812009546      2.18962308231100
  N          -2.46320655331090     -2.28742743802032      4.42100387480337
  H          -0.52912366958544     -1.90438167949356      5.06380435131583
  H          -1.67022961753095     -0.47817455825231      2.60843705113428
  H           0.97262181462065     -0.26482513317699      4.18656427557643
  H           0.18881630914984      1.09031488058385      3.32471148441696
  C           2.19829657283527     -1.74336922485434     -1.62715573585076
  H           2.64887129635219     -2.73448225269720     -1.62989196487212
  H           2.96736075141696     -0.99680264638864     -1.85795592019067
  H           1.41893839677307     -1.69699660123540     -2.39776720738817
  H          -3.06202474338013     -2.22198435401525      3.61111826944271
  H          -2.43692399169509     -3.20922178148608      4.82667583182619
