23
Coordinates from ORCA-job NEB E -45.140631489560
  C          -0.56074887349808      0.77868444169789     -0.86131195892691
  C          -1.68913569444960      0.70787008034461     -0.01697996891406
  F          -0.80619577473394      0.52794445033059     -2.17758782424522
  H           0.06551282186641      1.66419847282961     -0.78788446536970
  C          -1.57415224324937      1.40798278421244      1.32072686115379
  C           0.47103895556186     -0.69077503113751     -0.43682436425928
  C          -0.40510369134218     -1.63620322340700      0.13212167401158
  C          -1.72932653638447     -1.69403143504737     -0.45614477010265
  O          -2.37591195801667     -0.42673884056614      0.04283388603626
  C           1.69336531909825     -0.27985289168517      0.36191112433249
  H           0.70390894845585     -0.87442670554414     -1.48538926842798
  H          -0.34552173311051     -1.81018891750785      1.19926029748119
  H          -2.39049363198181     -2.46515823108951     -0.07157895577780
  H          -1.74507259576018     -1.66249469061847     -1.54752236764110
  F          -2.76328745119518      1.70311735209918      1.84689503459939
  F          -0.92803957732424      0.66258065764351      2.24870727349453
  F          -0.88564867105704      2.55641331345542      1.22952655507236
  C           2.73248126093493      0.45682031476538     -0.47491550564985
  H           2.14574199467848     -1.18552416873156      0.77236695284828
  H           1.39028137067531      0.33814590981833      1.20890207713173
  H           3.06514985413558     -0.16413416042317     -1.30392666301213
  H           3.59720732726182      0.70174574415394      0.13620994861903
  H           2.33395057943476      1.38402477440697     -0.87939557245394
