23
Coordinates from ORCA-job NEB_reactant E -45.177471670320
  C           2.27412854677859      0.00017375120860      0.58680088144823
  C           1.56337308255650     -0.63593837142353      1.51751320971800
  F           2.94638276203719     -0.60627084611109     -0.40246297316017
  H           2.36817063255705      1.07308562718408      0.54859565480546
  C           0.84115264896420      0.19191443391571      2.56310990731231
  C           4.57909753444521     -2.92929597420664      0.71575584255343
  C           3.53363261782657     -2.90530271928234      1.52462837742236
  C           2.10733965239981     -2.92446708771803      1.06473538654594
  O           1.31938326975660     -1.94061369092974      1.74052978205878
  C           6.00205249553221     -2.90534017791793      1.16750672188861
  H           4.43120097225869     -2.95163368643606     -0.35602585273836
  H           3.65873854511034     -2.86892648787240      2.59879162108510
  H           1.62580927748547     -3.86490560178910      1.35086756876725
  H           2.03589742437800     -2.80161617224828     -0.01976902620097
  F          -0.47574427056761     -0.03588904799726      2.55886214416662
  F           1.27896463615469     -0.08625579000250      3.79696075827323
  F           1.00314047809540      1.51017514311433      2.38888375875712
  C           6.72180004118665     -1.67234913034128      0.62075319049316
  H           6.50686607922977     -3.80338635990281      0.80091088587325
  H           6.04843184887459     -2.90897114594042      2.25774946364625
  H           6.68542976424257     -1.66069575839601     -0.46596928274540
  H           7.76303088835676     -1.67084895955661      0.93332959878845
  H           6.24762107234077     -0.76554194735067      0.98864238124136
