23
Coordinates from ORCA-job NEB_product E -45.174327638350
  C           2.87196862553629     -0.91673615906893      0.43621462035136
  C           1.84723357558630     -0.72682019145507      1.52892962427322
  F           2.18913413344206     -1.10117365038645     -0.74124015224710
  H           3.46854909598072     -0.00535662446674      0.30535408188726
  C           2.38527605584688     -0.04612869096685      2.82974295926869
  C           3.79266828135129     -2.14995562731546      0.65615113374974
  C           3.00283638362752     -3.27758671245931      1.26270404559722
  C           2.52901858830618     -4.29516816086088      0.57071311242584
  O           0.69715824474393     -1.03722532452507      1.46760009496881
  C           5.04812239616322     -1.85109126948688      1.48232821394070
  H           4.10251775700702     -2.43842948268119     -0.35488158729706
  H           2.83326622981141     -3.20544597606017      2.32927370651931
  H           1.95986834956903     -5.08088617419635      1.03549279752893
  H           2.68330331243934     -4.37796127034919     -0.49244439005605
  F           1.44746936796151      0.70882863897971      3.39459968242833
  F           2.76522101456675     -0.96016029213146      3.73384497248937
  F           3.44765489941474      0.74181182203273      2.60451005794294
  C           5.98069590105007     -0.83009080050449      0.84020651519793
  H           5.58160756273720     -2.79882602115396      1.58597987333077
  H           4.78095639906676     -1.52429544490263      2.48701250295552
  H           6.18995114013094     -1.09641346430309     -0.19334681586501
  H           6.92185693927967     -0.80368084890500      1.38291548340857
  H           5.55966574638116      0.17189172516671      0.86593946720072
