20
Coordinates from ORCA-job NEB E -51.942702166500
  C          -0.15863208169063     -0.72658564993319     -0.60510839112177
  C           0.84070093169404      0.27812129647201     -0.59884212746530
  C           0.00254556323237     -2.20424576762037     -0.40786528162783
  H          -0.80485789694950     -0.56295852615892     -1.46497966403955
  C           2.12828543464166      0.27489882631707      0.19743348784691
  C          -1.52798257606357      0.00730247166851      0.66950010026986
  C          -1.21825644304638      1.37428677148929      0.78957772008620
  C          -1.05147276703243      2.12899873244676     -0.36014674027519
  O           0.49685777277312      1.40927848335086     -1.04516705353392
  Cl         -1.52760879636674     -0.92489501373411      2.12582987166463
  H          -2.34200781365825     -0.28782561337929      0.01881824078442
  H          -0.74231560062318      1.70442764254061      1.70317336324879
  H          -0.73313990239714      3.15676009665262     -0.27810083441331
  H          -1.64346638980594      1.90417461150706     -1.23556190717020
  Cl          0.82831981649020     -2.73082468861913      1.05656908386792
  Cl         -1.61237461392375     -2.97694822193551     -0.43526184817232
  Cl          0.89783524606371     -2.85518060979266     -1.83812935893599
  Br          3.35493337410453     -1.14272978550338     -0.28222197244524
  Br          3.03953959891648      1.95506644925540     -0.13779387020531
  Br          1.77309714364144      0.21887849497637      2.12827718163720
