20
Coordinates from ORCA-job NEB_reactant E -51.981389321460
  C           1.42136272989873     -0.14629613870414      0.56260632638529
  C           1.98118480186665      0.64855070004823      1.48669573434884
  C           1.97509797296820     -1.18086829491580     -0.34330665534270
  H           0.34994711275765     -0.06045275407445      0.45484609946883
  C           3.42704531297090      0.77628725417026      1.88075268188718
  C          -1.43820834566955      2.71245149737278      3.85483413879954
  C          -0.52725202196493      2.86106420713265      2.90671100807809
  C          -0.11250102909397      1.74608322043584      1.99736099702144
  O           1.27990303285020      1.54956853312330      2.19937180806754
  Cl         -1.91665595865712      3.98719091378065      4.88764755279668
  H          -1.96128921390854      1.78452647919453      4.03433948425489
  H          -0.01310354913807      3.79905912040662      2.76430325444182
  H          -0.29259442563123      2.02513021730088      0.94985356136967
  H          -0.66220074666738      0.82743588687380      2.23425784244237
  Cl          2.08578770504721     -2.76791658303983      0.50477308671600
  Cl          0.83021052193365     -1.39975961344998     -1.70299018421547
  Cl          3.55016688752613     -0.79624415437337     -1.05874080138569
  Br          4.37619616384349     -0.89287446176364      2.07289806521798
  Br          4.34499736527336      1.93092881597610      0.58692636544959
  Br          3.56380568379463      1.66773515450555      3.60155963419811
