20
Coordinates from ORCA-job NEB_product E -51.976441338870
  C           1.14725209070606      0.46026929496878      1.12869127042541
  C           2.53245991240370      1.11932646394920      1.17925222904417
  C           1.21673369438447     -1.04919168899371      0.84167402149624
  H           0.74201022954420      0.90334718845014      0.20541151923638
  C           3.57996234807809      0.90518528789004      2.26460848367353
  C           0.12759707491439      0.87112733619875      2.20656772401002
  C          -0.20790022780925      2.32596209295177      2.10251286210766
  C          -1.43850850429262      2.76879761108730      1.92679284371459
  O           2.80649429376432      1.92022857306014      0.32888718722339
  Cl          0.67915704238931      0.54829398100775      3.88395699513029
  H          -0.76850598557072      0.26047431779520      2.06401938259522
  H           0.62127258516733      3.01072701283140      2.20657666953833
  H          -1.65299287852549      3.82101926830120      1.87034467946366
  H          -2.27752845111978      2.09930299265920      1.83290623122441
  Cl          0.90699139081144     -2.11336585101349      2.21887944231496
  Cl         -0.01406015434921     -1.44838485425917     -0.39798851050502
  Cl          2.82741802804671     -1.41459196965056      0.14746064899534
  Br          3.63517961592660     -0.68914844475559      3.32148441075662
  Br          5.32123922758842      1.10433557739178      1.41512090799060
  Br          3.32502866794202      2.45188581012986      3.44344100156417
