23
Coordinates from ORCA-job NEB_reactant E -52.308241903370
  C           2.01463911061136      0.44813297819819      0.30664092463136
  C           1.55325162800811      1.22030624150148     -0.69600997842156
  N           1.56216289821431      0.43227961840437      1.65464648412969
  H           2.81102834244564     -0.25615828594050      0.11703604071753
  C           2.13367425005499      0.96887753365147     -2.09219045332168
  C           1.72946823324831      3.39869527413498      2.48326102688667
  C           1.62153836573256      3.47828473365502      1.15777321802486
  C           0.40374451296593      3.02485766621202      0.41823407766659
  O           0.74170462926148      2.25784784061178     -0.74744913315025
  O           2.73840624151857      3.80439944981926      3.26200519687273
  H           0.93421136484582      2.97964639163531      3.08743011020371
  H           2.40380288796717      3.89207422269731      0.53907890593463
  H          -0.14450163433812      3.87006196186364     -0.00869783005866
  H          -0.25926463542400      2.44983274987758      1.07434247453484
  O           2.37906787156624      0.13943778431613      2.49922040874359
  O           0.38678756195904      0.65939215629514      1.87083678436444
  F           1.22278366048793      1.13358153141195     -3.04660404053203
  F           3.13398102758487      1.82693998407220     -2.34497904600144
  F           2.63825278670201     -0.25987210900293     -2.22899956857303
  C           3.87652187346710      4.36239967661862      2.64216475914268
  H           4.56142372314317      4.61730058323301      3.44804802300258
  H           3.61719390057679      5.26482744086081      2.08065609183028
  H           4.35372139940070      3.64155457587317      1.97185552337247
