20
Coordinates from ORCA-job NEB E -50.245716965680
  C           0.64130129546446     -1.02236959237295      0.32503186079233
  C          -0.54659531923748     -0.89817748288676      1.08298460068138
  Cl          2.14172227991969     -0.78800380659143      1.18905805518377
  H           0.71996263202906     -1.86416961876339     -0.35804619767568
  C          -1.79339038515283     -1.58431426113593      0.53979992298731
  C           0.47862708953815      0.49402067323380     -0.76870770892638
  C           0.34782706185136      1.53370408276749      0.16658691315025
  C          -0.79607612058697      1.52980463884847      1.01532903659659
  O          -0.71816441794259      0.14231160912676      1.83676716802880
  C           1.67206398929880      0.52045632010508     -1.70623750408451
  H          -0.41027484112716      0.19710939284069     -1.31946127046041
  H           1.24790110239101      2.02233644089173      0.51096180661073
  H          -1.76158881218946      1.43302947967854      0.52494733103604
  H          -0.80485503854733      2.26516742001250      1.81072872011818
  F          -2.74514528259419     -1.70492658449993      1.46157927493109
  F          -2.35455010702763     -0.89734071044482     -0.49231117888786
  F          -1.53003660770112     -2.80531416440202      0.05990498755579
  F           2.80133258556560      0.94641544668260     -1.10835989025200
  F           1.93099847092151     -0.70918670848898     -2.20713062754147
  H           1.47894042512713      1.18944742539855     -2.56342529984394
