20
Coordinates from ORCA-job NEB_product E -50.279443747250
  C           2.18852505587643      0.95015347216740     -2.42719846324242
  C           0.99431425169189      0.35733239720785     -3.12710604588402
  Cl          1.62994189073028      0.89917781086313     -0.71408557297199
  H           3.07514385883457      0.31493328137165     -2.49813753093563
  C           0.78281423095847     -1.16832835068491     -2.88058951570449
  C           2.48997408894610      2.39141268862419     -2.83852776783047
  C           3.57725622261251      2.96726034845112     -1.97076922088861
  C           3.42754977403911      4.05554678575642     -1.24269864316240
  O           0.19971107090465      0.96819956234212     -3.77910874843623
  C           2.92979778781008      2.41287621969432     -4.31234617635808
  H           1.58068859920046      2.99478410565515     -2.75984751974824
  H           4.51527805129194      2.43082687679565     -1.99756010751323
  H           2.49909150870320      4.60140802840171     -1.21711358832950
  H           4.23000885439562      4.44491881671512     -0.64174088994742
  F          -0.19979202715737     -1.38713041603940     -2.00494335056750
  F           0.45166608022177     -1.77536584398723     -4.02157184036988
  F           1.87924998531407     -1.77571939280064     -2.41438909703191
  F           3.34006243524108      3.64892476923209     -4.66103406860590
  F           3.98773435403964      1.58683766672715     -4.50555887638607
  H           2.13408392634550      2.11045117350712     -5.00927297608600
