20
Coordinates from ORCA-job NEB_reactant E -50.281953404750
  C           2.53396411138303     -0.09982483098373     -1.45375365886204
  C           1.38576041616945      0.50463192701359     -1.76364753115481
  Cl          4.00024945392934      0.64073743742853     -0.95368257741120
  H           2.60177193784147     -1.17431224952980     -1.50762423091410
  C           0.21924734815288     -0.35611253940682     -2.22844571441034
  C           2.91572130092892      2.46524487648349     -3.78239302383517
  C           2.95290389054834      3.01551221087612     -2.58069652307980
  C           1.89994263739768      2.83974705578525     -1.53022581156153
  O           0.98360918512007      1.79071408764133     -1.79381745299381
  C           3.98603323509535      2.66239680440307     -4.81216316198460
  H           2.09686109660543      1.84594954615895     -4.11849534127675
  H           3.77916891505613      3.64836797366852     -2.28974058659667
  H           1.27008614548125      3.73571655371335     -1.49671768165487
  H           2.36188817402077      2.70915719878231     -0.54617775611082
  F          -0.91781657056947     -0.03393119942182     -1.61294014382116
  F           0.00932544489922     -0.20196438856411     -3.54472440152167
  F           0.41680054280646     -1.66291346828249     -2.02633088246237
  F           3.47073444708165      3.22972097362145     -5.93389372012291
  F           4.96545386304482      3.49229234126572     -4.38373984628450
  H           4.46089442500720      1.71356968934711     -5.11728995394090
