21
Coordinates from ORCA-job NEB_product E -32.929584883930
  C           1.22829568006580     -1.36440797129093     -0.36478661824884
  C           2.31927711490172     -1.32311501761537      0.68793128783819
  C           1.54187140161810     -0.36877974680536     -1.51057001079768
  H           0.31591779478555     -1.00620117252903      0.13785371657144
  C           2.41693984948781     -0.00254319192655      1.29624647376982
  C           0.89258585444084     -2.78286482042919     -0.82877364633641
  C           0.36827435695352     -3.63166448764616      0.27698064686018
  C          -0.81341312032223     -4.22015100380742      0.24017274926093
  O           3.00957343743741     -2.24376317581888      1.02908538495748
  I           2.58499419468188     -3.83416291252471     -1.72675699468363
  H           0.16069672382005     -2.72256081449639     -1.63656181968567
  H           1.02576784900258     -3.75973501806331      1.12553660477514
  H          -1.16559836702968     -4.83102484134216      1.05268056083384
  H          -1.47606177184611     -4.11739109272114     -0.60436457877614
  C           3.02641091137834     -0.14777961571192     -1.79333457394121
  H           1.09433239941191      0.59678349622948     -1.26423501408561
  H           1.05527906071702     -0.73352911042735     -2.41799705945708
  H           3.51669101073115      0.35193558541489     -0.95981851583037
  H           3.13183306278159      0.48757848013322     -2.66974037283256
  H           3.54618111869499     -1.08032711091854     -1.99182729466791
  N           2.44955143828776      1.03110354229681      1.78597907447609
