21
Coordinates from ORCA-job NEB_reactant E -32.926076817400
  C           1.83271824153400     -0.49012330840449      0.19540026276182
  C           1.25651244539132     -1.13141448838901      1.22289297053044
  C           1.61140103694569     -0.58906203668401     -1.28285296972218
  H           2.57786438406187      0.23948904347135      0.48552514748314
  C           1.70919712748321     -0.76251431978760      2.52532093091705
  C           0.80584761758522     -4.15001344101410     -1.61214078187410
  C           0.78068917780632     -3.75804967204066     -0.35334157297146
  C          -0.20578916096233     -2.75686126564264      0.18063348551999
  O           0.27414617360323     -2.07803296958222      1.31494261819069
  I           2.16355310295492     -5.57557809240071     -2.34959646354234
  H           0.12716344936256     -3.77933206837569     -2.36283512596792
  H           1.47023579831312     -4.15324689511525      0.37923973459128
  H          -1.08495547654874     -3.29538545549273      0.55711806964274
  H          -0.53728513927996     -2.06279947807927     -0.59991492664057
  C           2.77085410417539      0.03762008491798     -2.05179309878332
  H           0.68709680255325     -0.06224413264617     -1.54667340946082
  H           1.50330287407781     -1.62922470387071     -1.59454076302746
  H           2.88157314010689      1.08789886177710     -1.79238181680909
  H           2.59575370223376     -0.03525434354514     -3.12252253762350
  H           3.70126965448983     -0.47572207215195     -1.82044116753321
  N           2.09905094411259     -0.45614924694404      3.55766141431881
