15
Coordinates from ORCA-job NEB E -23.260990667700
  C           0.86940420724919      0.98384019228605     -0.32783077080718
  C          -0.18140211827165      1.41167830190647      0.50291031830155
  C           0.63917648521368      0.82044109815071     -1.72304030685683
  H           1.85608303805541      1.38784147265247     -0.11417881010239
  H           0.08135292181567      1.89705867202933      1.44794557931318
  C           0.91575227667903     -0.88135394627293      0.17282192753017
  C          -0.39451750683671     -1.28584775710226     -0.07262846550258
  C          -1.42754377531772     -0.69489688861556      0.70197175807679
  O          -1.36573071885344      0.91651223817802      0.37997575045870
  H           1.69660412934054     -1.27552748504961     -0.46380311314014
  H           1.22625349155408     -0.74538823666801      1.20123408847385
  H          -0.64445586429605     -1.63750354046710     -1.06325128994557
  H          -1.27895760700861     -0.67416254643677      1.77856432800468
  H          -2.44705639862657     -0.93244573571328      0.42628024374873
  N           0.45503743930315      0.70975416112248     -2.84697123755295
