15
Coordinates from ORCA-job NEB_product E -23.301818231300
  C           2.64494594858304     -1.44438310437433      0.70347622051040
  C           1.86633480847111     -0.45694503820039      1.56029086218102
  C           2.45549162857908     -1.14603320097433     -0.69600895263347
  H           3.70660732243608     -1.27015768771709      0.93414597548797
  H           1.89354638818822      0.57807193581984      1.16950896756104
  C           2.27629057523680     -2.90683039391151      1.02724542070299
  C           0.86807342979276     -3.21543141910593      0.61747204713615
  C          -0.08314539543126     -3.56583380460907      1.46063695365484
  O           1.29840495950505     -0.73908135397733      2.57106769879914
  H           2.96739154156378     -3.56864556462939      0.49799565626927
  H           2.39223342500551     -3.05695327323989      2.10180215537534
  H           0.66502748731941     -3.12246349250156     -0.44200331200612
  H           0.10171285415356     -3.65107946116590      2.51857297619842
  H          -1.08533576821564     -3.77769512834610      1.13054953670920
  N           2.29942079481248     -0.92013901306701     -1.80505220594620
