29
Coordinates from ORCA-job NEB_reactant E -34.608198081250
  C           1.74485523456289     -0.16642505507553      0.37140634585291
  C           1.29693399786984     -1.06501662266681      1.24557051439985
  C           2.25413794311828     -0.35178800210403     -1.02881018987713
  H           1.72275893155349      0.85910876513010      0.71083226428283
  C           0.76751165034437     -0.64580283105817      2.59677146620340
  C           4.57159995082729     -2.96728184085149     -0.09358259409043
  C           3.54256191977587     -2.92326858532790      0.73504269177221
  C           2.11485333216610     -3.15437733842412      0.33454963163678
  O           1.19755279038968     -2.42967093587571      1.12788108760981
  C           5.99400878398629     -2.73328857507164      0.30263863137096
  H           4.41052099068878     -3.17067265713431     -1.14576685427322
  H           3.69100037895160     -2.72075733850375      1.78724733756849
  H           1.84703679282628     -4.20206370141006      0.52590692067471
  H           1.97417121979609     -2.96048086454250     -0.73420043799723
  H           1.53316654224613     -0.89088554623226     -1.64237101842207
  H           3.19830619365032     -0.89555813942581     -1.04681753164193
  H           2.41744708912211      0.62123963633064     -1.48594407599944
  C           1.80229153376820     -0.90092734282705      3.69253531946150
  H          -0.12737162645700     -1.23440496166337      2.80673571832328
  H           0.49663246253586      0.40948238645787      2.57950823196759
  H           2.05335644277392     -1.95825086609440      3.73063305318365
  H           1.40951419114673     -0.60527947154973      4.66267602961623
  H           2.70916520616062     -0.33240598658405      3.49624192777614
  C           6.56230920341522     -1.50598058684727     -0.41080163402952
  H           6.59144395515556     -3.60939223405710      0.03477141541966
  H           6.05938141512848     -2.59368138308555      1.38301319429219
  H           6.51292988700966     -1.63480667156581     -1.49000416052975
  H           7.60086064696966     -1.34890620069541     -0.12961772131993
  H           5.99296294051770     -0.61835704924479     -0.14374556323155
