24
Coordinates from ORCA-job NEB_reactant E -31.977983203920
  C           1.95755326215450      0.12229521952708     -0.04050577571286
  C           1.87137403625745     -0.18369270157552      1.25435467095636
  C           1.42868668196310     -0.72939889259626     -1.15227793373385
  H           2.45199649840723      1.03970882056215     -0.32446617643498
  N           2.43995345174194      0.58968994991418      2.27231424399685
  C           3.02593215276288     -2.94268000484180      4.07734484800156
  C           3.09422894550338     -2.34514371861786      2.89050875629128
  C           2.03545621924384     -2.47475068981469      1.84343450502135
  O           1.22103292114993     -1.30356086222977      1.71799375672939
  N           4.01853538536020     -2.90972377722518      5.03838123021398
  H           2.19255091360545     -3.58726604801899      4.32418020307871
  H           3.92321396052672     -1.69395305280897      2.65247852480399
  H           1.32884098595308     -3.26678563907859      2.10258074501671
  H           2.49068306544700     -2.69927075293509      0.86925106073916
  C           2.55417404107145     -1.26379873264377     -2.03974618659979
  H           0.74852641101495     -0.13388090607508     -1.76928058676058
  H           0.85908432308084     -1.55931560382802     -0.73171520011691
  H           3.11412270143819     -0.44046549741749     -2.47836024841078
  H           2.14878975443163     -1.87363038353823     -2.84439806638323
  H           3.24400526091289     -1.87218212989990     -1.45827815398079
  H           1.97471601818674      0.46244032618996      3.15994586565304
  H           2.57177746862885      1.56099391519413      2.03356480640366
  H           4.70146861222754     -2.17703465733423      4.91491134676264
  H           3.71399692893020     -3.02139418090807      5.99208376446508
