24
Coordinates from ORCA-job NEB_product E -32.000985342280
  C           2.52206419458481     -0.54845529341107      1.19941068773132
  C           1.19197988123285      0.08948741472373      1.58757443182780
  C           2.41828735173991     -1.07239921182848     -0.23654180402904
  H           3.30534259213954      0.21497320609050      1.25198430879588
  N           1.30032992912229      1.01542111814207      2.57170681971649
  C           2.86890665763289     -1.60970131315625      2.28148808227805
  C           2.26086847143281     -2.95121283204244      1.96996499484497
  C           1.13977146189546     -3.39422941268711      2.50586376964896
  O           0.12773082931544     -0.19403063314703      1.08873703519682
  N           4.31524322936023     -1.63990937090535      2.47083256020755
  H           2.45057305716589     -1.26108467286246      3.23573880052464
  H           2.81618856528693     -3.56855728013699      1.27506888897904
  H           0.56951317703994     -2.79665612183112      3.19764365037855
  H           0.73286937101428     -4.36097756465861      2.26214835127773
  C           3.74087841908769     -1.53045579141229     -0.83814304969499
  H           2.02015394551953     -0.25799025496063     -0.84640196620051
  H           1.68564508368508     -1.87961226958972     -0.26716182219283
  H           4.50572413674587     -0.76618403051602     -0.71299051668102
  H           3.61680509064579     -1.71714500510793     -1.90265979838194
  H           4.09305716838507     -2.45290328687278     -0.38251491409897
  H           0.46586251179809      1.45906240285300      2.91772150348813
  H           2.18098380254278      1.23586173377899      3.00047619003881
  H           4.77523590631398     -1.95796153496469      1.62491698858687
  H           4.55218516631286     -2.28993999549731      3.21313680775769
