19
Coordinates from ORCA-job NEB E -49.086517397280
  C           0.84585247548250     -0.62823152989364     -0.08009084910201
  C          -0.19352166021125     -0.36041960642355     -0.99595086048837
  N           0.60443047005553     -1.81953234222503      0.75892047389071
  H           1.86063083064131     -0.64993034492714     -0.47238304190494
  C           0.17262280439830      0.30278004060006     -2.31051394384323
  C           0.70946182779064      0.71150564546651      1.17376281957964
  C          -0.62688310149284      0.60323600813958      1.58534465301714
  C          -1.66158893427545      0.73106206365676      0.58045997507438
  O          -1.43209023352345     -0.23738561006060     -0.58311249658094
  Cl          1.94389514765649      0.41176896482045      2.38625033368483
  H           1.00661272934786      1.53446545560938      0.53065233597998
  H          -0.86316192828205      0.13156537348857      2.52471841908304
  H          -1.66831883894858      1.69579025959272      0.06975375540003
  H          -2.65239418302717      0.46754205931849      0.93859022590699
  O           1.46764471479564     -2.65617766150119      0.72413591697631
  O          -0.43924801931843     -1.87906267203687      1.35184987585244
  F          -0.83233164911699      0.32968716403137     -3.17697624906571
  F           0.54020586648263      1.59587878420054     -2.10482239627580
  F           1.21818168154532     -0.28454205185642     -2.90058894718447
