19
Coordinates from ORCA-job NEB_product E -49.108965819200
  C           2.56851268685350      1.18925797843717      0.92393727453365
  C           1.58172159971043      1.10822592348150     -0.22010483516694
  N           2.64636175099367     -0.15488534027885      1.60739015037973
  H           3.58041770823459      1.41323329471123      0.56691809498613
  C           1.97759180228220      2.04779149767552     -1.40465530216339
  C           2.11128186655455      2.27868848972831      1.92551359199420
  C           0.67690289314302      2.17520586256371      2.32364532304164
  C          -0.16820994556445      3.18146265430955      2.19132890051455
  O           0.59526132509927      0.44470875501474     -0.26135546366253
  Cl          3.16129239630796      2.12349415763494      3.39466728474900
  H           2.32824720023039      3.26234678284818      1.50122233760482
  H           0.36916053362199      1.22866719279661      2.74238073204193
  H           0.13145210019520      4.13080770577607      1.77746691138408
  H          -1.19614300404842      3.09060376165764      2.49342981678947
  O           3.71920606903448     -0.68789132496391      1.55100480383313
  O           1.65312794254315     -0.57929721969279      2.11825411977213
  F           1.10801913713966      1.99286799790329     -2.40053738149054
  F           2.04909808966636      3.32268999559081     -0.98737356112843
  F           3.18619784800243      1.72882183480628     -1.88353279801262
