19
Coordinates from ORCA-job NEB_reactant E -49.119161312570
  C           2.24545430648713      0.55184982058081      0.33795268490381
  C           1.57132546717000      1.61667346577035     -0.13084264772709
  N           1.98149717757768     -0.19651958566917      1.52496030589020
  H           3.11200448957719      0.19394093165641     -0.19852081699997
  C           2.03178382178895      2.20790382460774     -1.46927041604001
  C           2.35394592049244      3.14614560456713      2.48343624113741
  C           1.20104973206552      2.53890755481393      2.71943618409974
  C           0.13918294795623      2.29791193228561      1.68664520108466
  O           0.60030069593502      2.38158930400566      0.34210816575826
  Cl          3.53309804024958      3.38936368123380      3.70177193594532
  H           2.64447900164186      3.53711736891294      1.51902229578367
  H           0.95777381052056      2.17653163802620      3.70650583644189
  H          -0.63032738765043      3.07459636035948      1.74374216912824
  H          -0.32582438487394      1.32082230580748      1.86935897102328
  O           2.94324957519015     -0.63919564619103      2.10693280268949
  O           0.82422133511551     -0.37762089026853      1.84722937720175
  F           0.99990294435751      2.54064521291954     -2.23958148013641
  F           2.75185842384142      3.31926996052023     -1.26497458228850
  F           2.79962408255763      1.37156715606140     -2.16951222789575
