22
Coordinates from ORCA-job NEB E -45.422440468070
  C           0.32331879313858     -0.86255115880135      0.81896027810310
  C          -1.02854051407183     -0.98766366260848      0.40077655680065
  N           0.58478656991172     -0.30121720217650      2.03825172743200
  H           1.02438273099410     -1.63160667682229      0.51604659794949
  C          -1.38413990147247     -1.99228568413059     -0.67885769874969
  C           0.65134498683484      0.56474354908605     -0.62024289082328
  C          -0.23933058009210      1.57612970048112     -0.24599789625807
  C          -1.60703531416994      1.36997104930538     -0.40679808953125
  O          -1.85991653730602     -0.06455036200618      0.67490122801493
  C           2.11836915188064      0.83541404550259     -0.47819025841595
  H           0.44933693813972     -0.03238687187868     -1.50042362038203
  H           0.09701688720823      2.30477063552932      0.47891526617655
  H          -1.96071260432918      0.88150975728027     -1.30342313230944
  H          -2.29578785415817      2.08260398190402      0.01770838308059
  H          -0.09343454141427      0.38606432044398      2.33671007439285
  H           1.54079180698240     -0.06859984188752      2.25370000785785
  F          -0.27110625094016     -2.51175103370555     -1.28952795316244
  H          -1.99880103327266     -1.52319170348105     -1.45643895110219
  H          -1.93579607574976     -2.83515053383731     -0.24658756164927
  F           2.43656054673796      1.46470044299069      0.66923753634674
  F           2.86975917965185     -0.27659103855106     -0.50937191667672
  F           2.57893361549651      1.62163828736314     -1.46934768709439
