22
Coordinates from ORCA-job NEB_reactant E -45.446457131170
  C           1.63945517868724     -0.13126094339502     -0.31380077625357
  C           1.37042033016707     -0.20518265327333     -1.61993805737509
  N           2.49740673718187      0.76721151031420      0.29525792518282
  H           1.08923313347537     -0.77452734192614      0.35558196462273
  C           0.36666080691789     -1.16523776441843     -2.20510209247761
  C           4.27205107689705      2.14835057165261     -2.45299004116267
  C           3.07867352364376      2.71868605009869     -2.38709630303911
  C           1.79494577523309      1.96307428481371     -2.51761709486292
  O           1.98786468598268      0.56515489126861     -2.60471436331340
  C           5.55077120842541      2.90272703865745     -2.30244771698395
  H           4.39209515661498      1.08728788945713     -2.61467869204280
  H           2.97499446712586      3.78497069499357     -2.24161656070129
  H           1.29841345932099      2.29718825667156     -3.44140151168229
  H           1.14121287850459      2.21662029683073     -1.67442503066738
  H           3.21687560029639      1.14289881712498     -0.30626926738019
  H           2.85311729213311      0.46777292135098      1.18918868137485
  F          -0.02813553124278     -2.10590850444484     -1.29154654918714
  H           0.80901576879122     -1.69646094869207     -3.05573657848201
  H          -0.54136360907152     -0.64372135204912     -2.53719629970446
  F           6.20282221119986      2.54981172181899     -1.17366060494579
  F           6.40441276140264      2.66671811934395     -3.31159129332987
  F           5.38635708831325      4.23122644380177     -2.23949973758886
