19
Coordinates from ORCA-job NEB E -41.705734840480
  C           0.89439373274826      0.49083533303686     -0.08672324356063
  C           0.01917715325383      0.53698715834348      1.02789389511956
  C           0.72040978698080      1.48546866881002     -1.19221619122542
  H           1.95009933368082      0.39017561680945      0.15385366454848
  N           0.51129931926790      0.17347798363022      2.26073692474497
  C           0.37475500748108     -1.31293297798073     -0.72675806276848
  C          -1.00358900209189     -1.24389221843205     -0.89162163701524
  C          -1.77282731572000     -0.94174443467238      0.26330009911591
  O          -1.25948191869397      0.50901277932991      0.86906146350933
  F           1.13714884433207     -1.53948446430197     -1.80983032388021
  H           0.80168677281371     -1.82844611541762      0.13185746655151
  H          -1.38605526865699     -0.99634550391717     -1.86811389323886
  H          -1.58505919829663     -1.55485903570694      1.14069901170820
  H          -2.82520488861243     -0.74993752746670      0.10022924960766
  Cl         -0.92338904392146      1.69092159714357     -1.78274863290049
  Cl          1.23590926293103      3.10196977863690     -0.53102910018275
  Cl          1.79366578253216      1.15118223076604     -2.56763499084220
  H          -0.14508507067607      0.22449490450417      3.02396213846847
  H           1.46214671064779      0.41311622688495      2.48508216224018
