19
Coordinates from ORCA-job NEB_product E -41.761501677470
  C           1.60650411552549     -1.72636125457156     -0.46272742155827
  C           0.94883505605782     -1.41253218400323      0.90593522653316
  C           1.34604245268642     -0.60597009275059     -1.46507722695928
  H           2.69120428193986     -1.79977023549850     -0.32019162849665
  N           1.58230247855536     -0.46681223678034      1.61989110121448
  C           1.13404682736591     -3.12582460961447     -0.93228066943384
  C          -0.15528899396448     -3.17055211957126     -1.69750752418217
  C          -1.32253638255249     -3.42066215608426     -1.13674623755908
  O          -0.01172700224892     -2.01638250041414      1.31455641592417
  F           2.14295616666206     -3.67110348280755     -1.70381505694211
  H           1.06250043903543     -3.75765440578777     -0.03807536703512
  H          -0.05713274576420     -3.01897091671403     -2.76260295975049
  H          -1.41645669410666     -3.56806268428579     -0.07463249836267
  H          -2.22759774816073     -3.44851396849988     -1.71816578905939
  Cl         -0.36627941998554     -0.12772474420986     -1.46648964798679
  Cl          2.31006056350899      0.84689161149094     -1.04517580532104
  Cl          1.83206941918706     -1.05255137327931     -3.11698249374532
  H           1.16959155022577     -0.18941796241818      2.49640065674945
  H           2.31900563603286      0.09967531579976      1.23398692597098
