21
Coordinates from ORCA-job NEB E -29.593697728680
  C           0.42117530357419      0.92285484537269      0.33022778376688
  C          -0.31710584135885      0.04362459756648      1.13544507408961
  C          -0.22911828772405      2.16816757982461     -0.21876761579370
  H           1.45300698491109      1.07778327742177      0.63134680465899
  C           0.41552722346989     -0.85215065326148      2.09756142299077
  C           0.54082882314160     -0.23338993390694     -1.30450919320630
  C          -0.38174180731451     -1.28549706798961     -1.17551258551713
  C          -1.68686189598718     -0.92080842962214     -0.78806680811575
  O          -1.50767812529860     -0.31218947836228      0.78262406242310
  C           1.91884335489886     -0.56513557082374     -1.37368929734037
  H           0.26008656636814      0.59159049566931     -1.94858615197369
  H          -0.00899640482171     -2.24775258427754     -0.84600823283789
  H          -2.40283234585679     -1.71136041113880     -0.60677060414879
  H          -2.12340887710874     -0.05588257664150     -1.27618317943839
  H          -1.24793389913234      1.97612104126540     -0.54488757211902
  H           0.34478702929144      2.59653992026039     -1.03826703758578
  H          -0.26887404642048      2.91149611467305      0.57861490880229
  H           1.15092981047975     -0.29801893573305      2.67324131606203
  H           0.93276681942051     -1.63197768274316      1.53197378586029
  H          -0.29352984990528     -1.33200222883139      2.76691329804412
  N           3.03012946537307     -0.84201231872206     -1.40670017862130
