21
Coordinates from ORCA-job NEB_reactant E -29.629424652630
  C           1.91093325224971     -0.21354839509507     -0.16660431781265
  C           1.49767329871802     -1.46005910781841      0.04796235958483
  C           2.10131486085216      0.57000328680114     -1.43270390083633
  H           2.15461436884404      0.34477517236306      0.72601128358358
  C           1.43491600790913     -2.04120083500735      1.43467003565334
  C           1.86159061857435     -1.85718208836463     -4.38446348017547
  C           1.91182506979810     -2.20708352867103     -3.09891627397221
  C           0.74270837410260     -2.12613964597807     -2.16453324302568
  O           1.07412963344543     -2.42683486684533     -0.83288748415307
  C           2.97312674602454     -1.96940747620759     -5.23967288996235
  H           0.96071625804196     -1.45960040879229     -4.83477304282550
  H           2.82184826666422     -2.60824585683222     -2.67213188518065
  H           0.01632040346854     -2.90093798337668     -2.44961428660028
  H           0.23948241945014     -1.15489600556307     -2.24052491491645
  H           2.40271406452310     -0.05280008928758     -2.27084535182253
  H           2.87988779754960      1.31358199783377     -1.27313943061488
  H           1.19133232842597      1.10758683302018     -1.70741355152835
  H           1.84177800367128     -1.35327836739484      2.16747153272264
  H           1.99789255975994     -2.97196073168103      1.46161844516999
  H           0.40235264668759     -2.27200342320601      1.69170710754644
  N           3.87464302123958     -2.05206847989695     -5.94381671083443
