21
Coordinates from ORCA-job NEB E -52.532730873100
  C           0.52194640943424      0.73979274018037      0.44551860415625
  C          -0.79099402972471      0.40726295221622      0.78932789900484
  C           0.76754056879092      1.92628636862268     -0.43727247533091
  H           1.28283429229867      0.67703304866421      1.21793382854534
  C          -1.02269848922745     -0.24657863747533      2.14200312119267
  C           0.99900886254084     -0.79727106191543     -0.94072087848529
  C          -0.21631699247110     -1.48221379260692     -1.04916961349277
  C          -1.35532090274266     -0.80655064246568     -1.46194571258159
  O          -1.72235202334691      0.32658706608417     -0.05035968002653
  O           2.03894531309550     -1.43127086738154     -0.38090275179640
  H           1.22634034087635     -0.06295806198746     -1.70707848241631
  H          -0.30756995767882     -2.39510265485686     -0.47567371774520
  H          -2.29993535006884     -1.32806798908373     -1.47058603645820
  H          -1.26862907037963     -0.00088059776111     -2.17578306721837
  F           2.05351716198451      1.96658139473621     -0.84669423463266
  F           0.02181034550227      1.98094134585595     -1.54371598932562
  F           0.55717266292925      3.07486424360336      0.22337862818680
  Br         -0.72636163765496      1.06327885662299      3.56048795681405
  Br         -2.82944393994262     -0.90615935044236      2.23345980908708
  Br          0.20051931400799     -1.74934734807840      2.43435178342086
  H           2.86998712177715     -0.95622701253132     -0.50655899089804
