21
Coordinates from ORCA-job NEB_reactant E -52.569840215620
  C           1.76670207355408     -0.19561208361918      0.07292962322499
  C           1.67181479490596     -1.51899349052475      0.26767530103227
  C           2.08774907943517      0.55786045164165     -1.17041377543463
  H           1.59384132913593      0.46426595611651      0.91022170467372
  C           1.34150122913775     -1.99808014425192      1.66779546835345
  C           3.60105634317361     -4.41897574446098     -2.64745844769973
  C           2.41003043288095     -3.90723192199522     -2.35799322408108
  C           2.22262582442260     -2.49897184619808     -1.90393258061871
  O           1.83677079407624     -2.56686825301759     -0.52063592513739
  O           3.84595298967349     -5.67482909811819     -3.04745656142181
  H           4.50905918118239     -3.83269201029253     -2.60956442597687
  H           1.51907907554956     -4.51797754353800     -2.39343714072450
  H           1.42403335918280     -2.00913009654575     -2.46993896145807
  H           3.15488309571985     -1.93862329008608     -2.00198965972432
  F           3.33049095617088      0.32758939272582     -1.64441607154629
  F           1.25229662943774      0.30095375715307     -2.19698029376216
  F           2.01342415561012      1.87238126780276     -0.94829595504329
  Br         -0.23355901959350     -1.10656978938149      2.38167544798927
  Br          1.01047499802444     -3.89386291832829      1.69194703006747
  Br          2.85560109366012     -1.62859967900157      2.85207859233481
  H           3.02977158465982     -6.19273291608019     -3.06241014504715
