21
Coordinates from ORCA-job NEB_product E -52.566138686180
  C           2.50488654080865     -1.74191842837860     -0.40548689215020
  C           1.25895137654147     -2.24289276610730      0.29534139656431
  C           2.24359437291124     -0.43896291482819     -1.15347672387383
  H           3.31289010340110     -1.54086085562358      0.30452290529123
  C           1.41531349983119     -2.58753093261100      1.76607963595192
  C           2.94609761044997     -2.88104155854550     -1.37119845856511
  C           2.08803494011341     -2.94305275028726     -2.60302935739917
  C           2.55300548160917     -2.71264711455773     -3.81601955860701
  O           0.19312356450771     -2.35689762851516     -0.23070707649025
  O           2.83170156258096     -4.05878033331267     -0.59604139960948
  H           3.99556132359180     -2.70314767034967     -1.65255927167964
  H           1.05488019821379     -3.20849644240007     -2.42983095598240
  H           1.91678200312139     -2.77325494129692     -4.68087198145931
  H           3.58155475750770     -2.44112102960771     -3.99075938243542
  F           3.28679978256102     -0.12469016320549     -1.93618711184494
  F           1.16473822372049     -0.44623123388676     -1.92907703041519
  F           2.09520803350553      0.57784853923559     -0.29326454536278
  Br          1.33048914528515     -0.82475297730583      2.63913051336332
  Br         -0.07221087041286     -3.66280610280390      2.33354690206596
  Br          3.05758292593621     -3.44559578019588      2.26369394387880
  H           3.10481542421493     -4.82026691541640     -1.12000555124079
