20
Coordinates from ORCA-job NEB E -33.651696201970
  C          -0.77923302462577     -0.07146674683538      0.84313118119215
  C           0.20145350469678      0.72528362169003      1.42507393277189
  C          -0.60587739805001     -1.56035124833549      0.92183544459862
  H          -1.81199908976717      0.26134811013253      0.87964397131262
  O          -0.08868124245323      2.02690412615795      1.74861716291076
  C          -0.21949900812681      0.40145603321570     -1.17848070490311
  C           1.10501815662507     -0.03916559115335     -1.11250944514667
  C           2.02375078028676      0.63692057761602     -0.31735701339801
  O           1.42260969180697      0.40719614706583      1.39463241299931
  N          -1.12743250932465     -0.19675286463927     -2.01222512127575
  H          -0.40801346566865      1.45886821391160     -1.02742824338529
  H           1.30887981202321     -1.05992004051180     -1.40350036362994
  H           1.97264708481672      1.71491148416994     -0.25874299574187
  H           3.01485904771510      0.22777851770976     -0.20385325507618
  F          -1.30498384939728     -2.21575863263623     -0.07132103717482
  H          -1.00502556233789     -1.95028523331176      1.86751490369768
  H           0.44577754805569     -1.83775996307486      0.82170123396234
  H          -1.03896357440461      2.18515545201463      1.72254632249157
  H          -1.01442701715400     -1.19251170972496     -2.13374370316753
  H          -2.09085988471622      0.07814974653909     -1.90553468303777
