20
Coordinates from ORCA-job NEB_product E -33.692561954650
  C           2.67859453144493      0.13747152578613     -1.33611827377760
  C           1.49960953519136     -0.81117280957163     -1.17730147009984
  C           2.49459623706304      1.31777489275514     -0.38472273544762
  H           3.60617946469463     -0.38808825138625     -1.07853009185938
  O           1.68049605001105     -2.02241705709425     -1.72484913454010
  C           2.81048993745253      0.55849129337452     -2.83097427008772
  C           1.93776353294685      1.74537914582239     -3.15036429029091
  C           0.76166769180815      1.65408844935610     -3.74093448606753
  O           0.47688981253673     -0.52492042119836     -0.62768989126518
  N           4.22439777803428      0.76494431084412     -3.11012113650341
  H           2.48846707786915     -0.28499918546540     -3.45863434773302
  H           2.35158245551831      2.70799554172751     -2.87906032724578
  H           0.33721127470357      0.70256235149243     -4.01704920598650
  H           0.16764349902665      2.52369584862413     -3.96344216211145
  F           3.52734172487586      2.21440176998105     -0.51287064690643
  H           2.49480154537499      0.97753351845625      0.65475345368523
  H           1.56541112495177      1.85266751636202     -0.59679660176011
  H           2.55400687865632     -2.12289780169242     -2.12897576601939
  H           4.58207475060997      1.52659686635790     -2.54191163403782
  H           4.35527509722983      1.01939249546860     -4.08310698194544
