18
Coordinates from ORCA-job NEB E -33.518155849730
  C          -0.47522269397485     -0.82706278203195      1.13303872999302
  C          -1.77342360669921     -0.44675443937611      0.86535048056515
  I           0.52692470008124      0.00466054785064      2.78065826202304
  H          -0.20318278168395     -1.85851205028427      0.96018715307277
  F          -2.42483854948950     -1.33928792862845      0.02290861212734
  C           0.40431002538072      0.24208232854719     -0.49149106842365
  C          -0.16782118083832      1.49252542637729     -0.27270668130032
  C          -1.53882968424139      1.68818078692615     -0.42418185593063
  O          -2.24628592707484      0.69873470100936      0.92072480007425
  O           1.72029231379705      0.10469976381499     -0.25313813681382
  H          -0.03136077941346     -0.43382844016566     -1.22581842134351
  H           0.40535232611857      2.18531911810682      0.32563536854030
  H          -2.06293103440477      1.16308908400538     -1.21197027918943
  H          -1.95386088237956      2.64951115527445     -0.16621941475505
  C           2.32493656774276     -1.10104773601998     -0.66530470506711
  H           3.38996441442473     -0.98566172851764     -0.47632900639118
  H           2.15679364822936     -1.28388036321035     -1.73083077271563
  H           1.94918312442542     -1.95276744367787     -0.09051306446553
