18
Coordinates from ORCA-job NEB_product E -33.557641526260
  C           2.70508577959018     -1.01526276913212     -1.44411842942582
  C           1.27996031434968     -0.61104745678891     -1.31785863170539
  I           3.62761305246131     -0.38363688115092      0.40814842196948
  H           2.80822692608134     -2.10053490342108     -1.44568221446474
  F           0.58154611306639     -1.55882436596226     -0.63019357207337
  C           3.44673168259269     -0.40436697613265     -2.63044509829983
  C           3.28843344587471      1.08846918044679     -2.71678688298166
  C           2.81040556185666      1.71632384252730     -3.77311459346297
  O           0.72420368731968      0.35617709907441     -1.69842399956196
  O           4.79397367110095     -0.79342184997286     -2.44602981456819
  H           3.04595517698962     -0.86643295244186     -3.55240895765483
  H           3.63878855876048      1.63318877005664     -1.85072684431160
  H           2.46758782959080      1.18503212644647     -4.64628526959760
  H           2.72341089629060      2.78811547931606     -3.80046336030530
  C           5.64738712514030     -0.47259835189959     -3.51649884817239
  H           6.63163177447493     -0.83926824585234     -3.23419277379464
  H           5.69133002568396      0.60761357854537     -3.68771718391060
  H           5.32092837877572     -0.96672532365845     -4.43920194767861
