18
Coordinates from ORCA-job NEB_reactant E -33.545244567350
  C           2.00649905395843     -0.37348330613283     -0.45074265143155
  C           1.24831354505327     -0.42137142773445     -1.53929810718877
  I           3.50671231320186      0.99004420660723      0.05522657416536
  H           1.83973105904060     -1.11558357150310      0.30890530224165
  F           0.33355045003702     -1.41824775734296     -1.55645855227402
  C           3.66051815441141     -0.61530877180884     -3.58695934311160
  C           3.43764487028529      0.66632600197404     -3.31529240449866
  C           2.06296812195576      1.22371895739689     -3.08391091203706
  O           1.10725805133159      0.25864282744245     -2.67099679282197
  O           4.83885383548820     -1.23346088486439     -3.79299315525102
  H           2.85215098373456     -1.33148269375733     -3.66233054034399
  H           4.23273423575411      1.39090920645056     -3.25296003919611
  H           1.64011822497450      1.61391570942873     -4.01702179569380
  H           2.10492621383623      2.04877144302168     -2.36347411406105
  C           6.01071357720881     -0.45452257159258     -3.70183471036713
  H           6.83959345711921     -1.13913953550860     -3.86985913483359
  H           6.10470197508455      0.00070655875185     -2.71121778644791
  H           6.02371187752458      0.33096560917166     -4.46338183684878
