17
Coordinates from ORCA-job NEB E -33.942739142910
  C           1.03962029035454     -0.14717992714552     -0.86521841579545
  C          -0.23601507348158     -0.71491053488688     -0.83306632822223
  H           1.86732931595981     -0.77937221701512     -0.57532623649551
  H           1.26713874889153      0.51509129614404     -1.69143375401036
  C          -1.36202497703295     -0.05896695676373     -1.61113587161161
  C           0.98140475623260      0.93394721058541      0.68173503986001
  C           0.61403704282826      0.04035484403326      1.68510175240881
  C          -0.65049031402674     -0.62107529122536      1.54108197394603
  O          -0.57909771225416     -1.45495614665539      0.19537236086042
  Br          2.72504025700181      1.72586091936596      0.80021627320513
  H           0.27043224344965      1.67434732123223      0.33503191645464
  H           1.39172242743574     -0.46084508164526      2.24323387213265
  H          -1.50317624511019      0.03365116641477      1.37000170394819
  H          -0.86404871609771     -1.37872824958837      2.28668311674695
  F          -1.72613594936959      1.13209951901878     -1.03541515428250
  F          -0.97449836322629      0.24975183972312     -2.86736981986572
  H          -2.26123773155472     -0.68906971159193     -1.65949242927948
