17
Coordinates from ORCA-job NEB_product E -33.980606858810
  C           2.16969469160821      2.37989905876370      0.47420571034244
  C           0.84347569341203      2.71073865579683     -0.14772904695220
  H           2.34928495310904      1.31118599754681      0.30318208591914
  H           2.95743473435412      2.92562749042028     -0.05443024951947
  C           0.83338636849177      2.53724502395946     -1.68803291025672
  C           2.20645221470350      2.67143840319996      1.96813907289239
  C           3.40849041702380      2.09896912251476      2.63236249739771
  C           3.35333057422998      1.34901180387462      3.71775236263299
  O          -0.14811544261394      3.03730300481857      0.43674889113224
  Br          2.23150476660191      4.64631603886656      2.22051124179906
  H           1.28255001743313      2.34386860373904      2.44860486983430
  H           4.35569078567009      2.35523448979363      2.17703986668725
  H           2.41699118242814      1.09975385944320      4.18973061622114
  H           4.24213957489384      0.95351115452461      4.17692816301686
  F           1.87429733422250      3.18918213075438     -2.25160536057090
  F           0.99861578507031      1.22336032074718     -1.98187614748072
  H          -0.10202365063846      2.88785484123643     -2.14613166309553
