17
Coordinates from ORCA-job NEB_reactant E -33.970134348710
  C           1.69586820970860      0.25635213237385      0.09919781276560
  C           1.60600148581361      1.58076045452094      0.10015155790949
  H           2.16851794056459     -0.29796226558068      0.88786592122156
  H           1.28831419208558     -0.31601842476777     -0.71151781035265
  C           0.93305040482432      2.32985346706851     -1.03191147195612
  C           2.89867530268597      4.32851919749412      2.80467135364768
  C           3.13516161639379      3.05572546255457      3.06406673251642
  C           2.71862828770829      1.93603766078991      2.16234277801697
  O           2.05819377840931      2.45244616772057      1.02955754009700
  Br          3.44122023151614      5.70716823558089      3.96877856420626
  H           2.38623514604031      4.67602392456455      1.92342570697427
  H           3.65318430576070      2.74646228305710      3.96049087722165
  H           2.05196584974771      1.25389786958750      2.71202668956673
  H           3.60849586501973      1.36542882880564      1.85462885643619
  F          -0.09570654512963      3.08032878741865     -0.57134112396986
  F           1.79590617626274      3.19079138820692     -1.62207450636460
  H           0.54188775258824      1.65508483060473     -1.80745947793657
