22
Coordinates from ORCA-job NEB E -45.427745080710
  C           0.60172485810768     -0.84848113793379      0.04939595843929
  C           0.03027521791041     -0.97306058626185     -1.23817891064305
  C          -0.07866435539221     -1.56651581724832      1.18072840898964
  H           1.67579447270780     -0.99661766757157      0.11667987794097
  N           0.85636511053310     -0.91127583587171     -2.34134734451316
  C           0.28965415398458      1.07789064255513      0.34156801835122
  C          -1.07807690591863      1.22556504166110      0.10240590144780
  C          -1.56843676501423      0.87291922286583     -1.18190881612767
  O          -1.22259442615783     -0.73027310156307     -1.41624593342946
  C           0.84666778637043      1.44563108779112      1.69548420732191
  H           0.97167232336880      1.37121631338078     -0.45272413611042
  H          -1.75242899064720      1.17106386345487      0.94241341063547
  H          -1.03327969630596      1.28394401866527     -2.03456725419348
  H          -2.64268151681867      0.88197910761498     -1.31031498058874
  F           0.59835283162264     -1.43093200473287      2.33165497201159
  F          -1.34163669902710     -1.23627414525973      1.41976318881004
  F          -0.08555145042981     -2.90450900331434      0.93873039109404
  H           0.39341312219536     -1.02853011612277     -3.22907015548460
  H           1.76953307444809     -1.32761019639208     -2.27267249893749
  F          -0.05274697471809      1.22325753545314      2.70076574481778
  H           1.07162444625680      2.51997134448300      1.71263387661679
  H           1.75102038292403      0.88064143434687      1.94480607355155
