22
Coordinates from ORCA-job NEB_product E -45.480604944220
  C           2.28751482425902      1.98225115504140      0.68495084219356
  C           1.50867602915410      1.57465501858760     -0.58972876942028
  C           2.55822808187946      0.72630909831266      1.51332086841990
  H           3.28103283327899      2.33830633433734      0.38564471098206
  N           2.30504355048098      1.12215652500423     -1.58278860694539
  C           1.55642164188897      3.12636294878355      1.42156791708807
  C           0.10872013960956      2.84335315415251      1.72845816862215
  C          -0.84969296151643      3.72287550644695      1.51191951318393
  O           0.31691941011854      1.69176288167983     -0.70326915678232
  C           2.26947163977143      3.54642685782456      2.71599211243264
  H           1.60278440607883      3.99125163518367      0.74965580246050
  H          -0.10593547907961      1.90037420199331      2.20460500133495
  H          -0.65901906702761      4.67408335261071      1.04160417115944
  H          -1.87089338695793      3.51687850372582      1.77721761284543
  F           3.51460093553021      0.92145910661869      2.43034427135058
  F           1.50533537444822      0.20712098578052      2.12921689740240
  F           3.04713370698421     -0.25608495603626      0.71471571048382
  H           1.85080884512745      0.76000044575381     -2.40661060794553
  H           3.26565857874320      0.86625934003599     -1.43399083985581
  F           2.04262758508108      2.65398266918061      3.72776553724044
  H           1.87273993222148      4.50737150751406      3.05878595744386
  H           3.35592337992584      3.61104372746843      2.58702288630561
