22
Coordinates from ORCA-job NEB_reactant E -45.461424343260
  C           1.97821468953774      0.42547590380805      0.60999948440640
  C           1.82410583761007      1.27851043728549     -0.42653662644619
  C           1.04859077793551      0.14765841617086      1.71742861579025
  H           2.86081574337990     -0.18989363602352      0.63281386022537
  N           2.76200143897923      1.33608818738431     -1.42151466614678
  C           1.34983628440785      4.03535152656858      2.34462033520617
  C           1.32716629874100      3.77517916223594      1.04924169674294
  C           0.27670802903070      2.95147237286811      0.37074190302728
  O           0.82676003878069      2.15322803196152     -0.67463089048547
  C           2.39157687191507      4.86526005128452      3.02000865045147
  H           0.59578921082339      3.64768817114062      3.01341920525049
  H           2.09702961519044      4.16545469171157      0.39743760570854
  H          -0.42651954832978      3.60306467171829     -0.16003639757570
  H          -0.28930470733608      2.35651412062274      1.09052972742137
  F           1.05474232544817      1.05791093930924      2.73029361887062
  F          -0.24992013999894      0.05620269307205      1.35074358521116
  F           1.34604511033470     -1.02317109033009      2.30535875380013
  H           2.48545864707300      1.85249221901512     -2.24048420898057
  H           3.34817941756635      0.53392908414556     -1.57237266473226
  F           3.31565387405826      5.36180707310491      2.13556509673426
  H           2.94377908676019      4.26642830592913      3.75480166314776
  H           1.93969109809252      5.72904866701700      3.52367165237276
