22
Coordinates from ORCA-job P E -42.079199396330
  C          -1.42533578940731      0.39438619154648     -2.33008026093029
  C          -0.05435526300283     -1.60865438022433     -1.04045639549782
  C          -1.44600519338023     -1.88646768299973     -1.50733481537245
  C          -2.11758459535514     -0.92192786572443     -2.11497708787441
  C          -0.77018870034020      0.86125611437701     -1.01312857726468
  C          -0.04302835639923     -0.27390619053660     -0.26385018845355
  H          -1.88035964705272     -2.85444126134210     -1.32297398942149
  H          -3.13049941458075     -1.04876733956149     -2.46088713027838
  C          -2.37435530303322      1.43841270986610     -2.89215669479296
  H           0.31508490898231     -2.40463764479209     -0.39533574108813
  H          -0.63666739658109      0.25366020802663     -3.08639389981022
  H           0.61350590903835     -1.54552099947454     -1.90770568572086
  H          -1.55048479512466      1.25685404277128     -0.35989475193263
  H          -0.54054263938135     -0.45049794405904      0.69292668605015
  H          -0.08246773259563      1.68577521190214     -1.22168408753975
  C           1.40502737596910      0.08297718961446      0.06550365103256
  Br         -3.90061553473812      1.74913191218576     -1.71300230189434
  Br         -1.46200214011947      3.15113287205814     -3.18218915118781
  Br         -3.06490065642684      0.85266798048576     -4.63535775107978
  O           1.86375623578017      0.00090120949007      1.16496054477508
  O           2.15760889175073      0.47069424771326     -0.97546734219664
  H           1.66798983599813      0.48827141867726     -1.80873502952159
