22
Coordinates from ORCA-job TS E -41.976877299470
  C          -0.79046122098048      0.28468928162178     -1.10787207990969
  C           0.69910669804097     -1.85621084564953      0.10558819726731
  C          -0.64570145462294     -1.90441296818406     -0.06423540301015
  C          -1.37876647084977     -0.87035851055925     -0.68265429896768
  C          -0.01626460622271      1.00209312318340      0.96111418613802
  C           0.71104783224433     -0.00022633047590      1.52282747041919
  H          -1.21652341747959     -2.67086706279864      0.43935408425295
  H          -2.45825148856817     -0.92754932821938     -0.63751567614367
  C          -1.58207666965545      1.38403700201193     -1.70441056780907
  H           1.20254904350310     -2.60230819149470      0.69665079745506
  H           0.24977234128118      0.28942864067010     -1.39921967187836
  H           1.33609974163702     -1.28148081770027     -0.54406171080516
  H          -1.03278527612113      1.16037049569825      1.27821829701893
  H           0.25512643671429     -0.64086019799719      2.26194944093917
  H           0.44678232871103      1.84031744125684      0.46347549951410
  C           2.19514825764533     -0.08338895883288      1.51159610236334
  Br         -3.18319641988460      1.82258798521808     -0.67626731472171
  Br         -0.51969417131020      3.01562003689791     -1.89583989201299
  Br         -2.17754798907617      0.87048448806233     -3.54932393911558
  O           2.80007396229316     -0.80593135446437      2.25456999111680
  O           2.84714603822853      0.69033472052923      0.62553302130999
  H           2.25841650447227      1.28363135122631      0.14052346657921
