21
Coordinates from ORCA-job NEB E -33.389090705000
  C           0.47722783935991      0.07343554146585      0.76217662786503
  C           1.44154520458295     -0.59018681044212      0.01392263836682
  C          -0.77795673981000     -0.66069653443246      1.18014399515623
  H           0.86138216234590      0.76838947397288      1.50041160128658
  O           2.71858799635389     -0.10841076569010      0.04890931505554
  C          -0.08758945271290      1.27139309303828     -0.76824368465983
  C          -0.45867229480686      0.37511220555723     -1.75400545645418
  C           0.55288770438746     -0.50291568579001     -2.24214020911073
  O           1.11818578356287     -1.36493764155456     -0.97399221868759
  F          -1.04054450720623      2.05813601061225     -0.22936611908886
  H           0.85084650318627      1.81646364820614     -0.81742765499528
  H          -1.49163692450526      0.06806955791142     -1.80156852808277
  H           1.47063892239153     -0.02267243803744     -2.57594513253649
  H           0.22616845163548     -1.28223837841093     -2.91857571686159
  C          -1.65651245043350      0.15179059908071      2.12304214576810
  H          -0.46631089547319     -1.57557155100932      1.69352562890084
  H          -1.34711978789892     -0.96810222190668      0.30200665781473
  H          -1.09923441035178      0.43260158791816      3.01402115457882
  H          -2.51541443348303     -0.44079074187486      2.42931810212796
  H          -2.01911148243098      1.05549473340426      1.64410400914754
  H           3.24263281130638     -0.55436368201871     -0.63031715559085
