21
Coordinates from ORCA-job NEB_reactant E -33.413104370660
  C           2.34889395460859      0.05744464837693     -0.09383536483296
  C           2.93056815776572      0.59967174682112     -1.16141121229373
  C           1.33653425996342      0.76308691200867      0.75441399780270
  H           2.64671102356081     -0.93333233986491      0.21630658784944
  O           3.86607831606910     -0.04602446279385     -1.92588895846113
  C           1.54916282532113      2.28567650387441     -4.76165502651340
  C           2.36015467433463      1.62526334656493     -3.95982203312865
  C           3.10732080923882      2.27934548728131     -2.83752202491608
  O           2.63698973830071      1.86024178976583     -1.56598180765622
  F           0.88578430644401      1.67767143215349     -5.75724944751169
  H           1.34478491559577      3.34639760016869     -4.72986969863059
  H           2.48902610623968      0.55902470417827     -4.07181392335303
  H           2.94866050067970      3.35984746241007     -2.84505276993721
  H           4.17809191922437      2.06228760471561     -2.93166659140656
  C           1.90571005020932      1.11736713800049      2.12866805728300
  H           0.46379615964426      0.11758611988282      0.88674822613601
  H           1.02054271147586      1.67201026311698      0.24333767815522
  H           2.22967308777347      0.21922539614853      2.65049280009117
  H           1.15303726376767      1.61605469102712      2.73470256424184
  H           2.76037362459097      1.78074598128777      2.02114002892431
  H           4.04710559519199     -0.90869202512429     -1.53974108184246
