17
Coordinates from ORCA-job NEB E -40.241866467790
  C           0.74451088530498      0.48778257539191      0.90762936440789
  C          -0.62927718729511     -0.00960074498321      0.87600503539376
  Br          0.79928953371370      2.39355030770744      1.32445909354632
  H           1.39739681438839     -0.01068501439665      1.62278354033336
  C          -0.96769628537635     -1.30379980566203      1.41783812634871
  C           1.34617006492196      0.27574930596142     -0.59149937956228
  C           0.43661515635308      0.90833519490272     -1.52021243896812
  C          -0.92248507632668      0.48437079155057     -1.48847315701608
  O          -1.44001764143688      0.50645906289034      0.00231101410922
  Cl          2.99553915452950      0.92399702447832     -0.63777325386746
  H           1.41011762140530     -0.81342213250895     -0.69359775712824
  H           0.69433656277946      1.87705210145473     -1.91821209004310
  H          -1.08494625879500     -0.57317675178001     -1.71071994704455
  H          -1.62337995984701      1.11908220068840     -2.02115253669710
  Br         -0.14447708825457     -1.78576089880817      3.06579380349939
  Br         -2.84304661061609     -1.63626212535351      1.43526602581001
  Br         -0.16864968544869     -2.84367109153332     -0.07044544312174
