17
Coordinates from ORCA-job NEB_reactant E -40.273667895700
  C           2.26734825733248     -0.46575717320034     -0.25550524809460
  C           1.71677434020683     -1.45123029737285     -0.96344603041936
  Br          2.68887581002383      1.29097043328372     -0.80047083008932
  H           2.52414402040104     -0.61736117341742      0.77933263023661
  C           1.41417048605509     -2.78613985573356     -0.33740209668125
  C           3.86332195589155     -1.12471543700051     -3.40816923416215
  C           2.88831488217601     -0.24459835139841     -3.56738255225073
  C           1.46078450168827     -0.50511897934164     -3.18377312954664
  O           1.29426332786375     -1.55078456726099     -2.24235602101052
  Cl          5.48668910707985     -0.79611397509930     -3.84980882586677
  H           3.72016925746330     -2.11306410663049     -2.99747288974390
  H           3.07847430513555      0.72722862315418     -3.99576184479263
  H           0.90057647994870     -0.85920470944656     -4.05693343080170
  H           0.98501592860759      0.41398652447215     -2.82685088243064
  Br          1.94152291055920     -3.01359840817931      1.50015099874742
  Br         -0.51962203558482     -3.08349915190843     -0.45786580010016
  Br          2.29947646515180     -4.17549939492022     -1.39248481299366
