17
Coordinates from ORCA-job NEB_product E -40.276001399830
  C           3.04135179986225     -1.17808024781695     -1.09938253599702
  C           1.63793499197856     -1.64569645105573     -0.82017343148719
  Br          3.17072801032665      0.46744567725139     -0.03752496641186
  H           3.80699876788308     -1.84721223709953     -0.70143269590745
  C           1.52105744784267     -2.77371555113764      0.19529882243362
  C           3.27051069426562     -0.92679153636618     -2.58477771762037
  C           2.35414286351071      0.07917597484006     -3.19059722675333
  C           1.66102310356096     -0.14500666470744     -4.29155919492014
  O           0.65672916947126     -1.22368127306854     -1.35706433008795
  Cl          4.97820899366991     -0.37012894333475     -2.78746126536884
  H           3.20037483738422     -1.88635253305106     -3.10876890733290
  H           2.31091109355533      1.03419564166212     -2.68656609040854
  H           1.70040919818428     -1.08867844590515     -4.81051295122136
  H           1.01755726493418      0.60774334206447     -4.71022276661883
  Br          2.58842076286092     -2.52537204074971      1.78590761153036
  Br         -0.32627004897899     -3.05604658539349      0.66755644193639
  Br          2.19171104968837     -4.33159812613187     -0.80581879576457
