36
Coordinates from ORCA-job P E -40.339456132140
  C          -1.59930222499251      0.24027011897441     -2.53890253411630
  C          -0.25449157681786     -1.77615121373537     -1.24929321948418
  C          -1.74857486420818     -1.81429031063512     -1.26770812015002
  C          -2.40106740138078     -0.83116926527096     -1.86561815816938
  C          -0.48979467192674      0.72624679949862     -1.58135030103190
  C           0.18839353076805     -0.38950063239646     -0.75497302200553
  H          -2.25331698272087     -2.62706796086567     -0.76822751874532
  H          -3.47796126474320     -0.79949674307184     -1.89072299290887
  C          -2.45289670681839      1.38949014340099     -3.12777342330223
  H           0.13384232756113     -2.55901643692964     -0.60002347373925
  H          -1.08655040273307     -0.23457962486660     -3.38760055085046
  H           0.13943126498561     -1.92697379816963     -2.25864576643745
  H          -0.91032392568880      1.46518860569727     -0.90000672150000
  H          -0.14585550701315     -0.31233882371643      0.29869418144548
  H           0.28663134248529      1.20494441227326     -2.17693032807335
  N           1.63982787938736     -0.19349240217709     -0.82683755470847
  C          -3.34047778419717      2.05247483958251     -2.07126721975032
  C          -1.54527282428093      2.45662182609653     -3.75051796871323
  C          -3.34029876671869      0.81955392961699     -4.24151286200718
  H          -2.74381047520789      2.50817417387283     -1.28516363690960
  H          -4.01518483663161      1.33475414183885     -1.61311077782093
  H          -3.93990000757790      2.83514357097856     -2.53181235210654
  H          -0.98491354150782      2.99247661140646     -2.98949820741465
  H          -2.14559853938986      3.18133053116814     -4.29694503649032
  H          -0.84158095762038      2.00510983165453     -4.44651978331994
  H          -4.00837891324941      0.05044754827827     -3.86406737133188
  H          -2.72950119866110      0.38162903831315     -5.02826767236650
  H          -3.94747661699448      1.60841367300050     -4.68063146587946
  C           2.42669766715879     -1.33854699539935     -0.41411414341637
  C           2.03599391689096      0.96845758647321     -0.05439893924479
  H           2.18989627877957     -1.67960886203409      0.60653011663564
  H           3.47913229041069     -1.05830596207694     -0.44256319628425
  H           2.28267948081397     -2.16255735113193     -1.10847653837871
  H           1.86143915925562      0.83326424288583      1.02586071524011
  H           1.48297420790786      1.84463677336387     -0.38264987405486
  H           3.09769064467594      1.15421798410235     -0.21250428260899
