36
Coordinates from ORCA-job R E -40.266472298870
  C          -1.77541375950215     -0.43882619450087     -2.77842203763105
  C          -0.84703101114897     -3.22362210753783     -2.01539879045319
  C          -1.79949237155233     -2.51487261851038     -1.42145452348218
  C          -2.25207071778322     -1.18044811413210     -1.77973605534682
  C          -0.38231825802965      1.84163560628502      0.83901588051791
  C           0.04528192297796      0.79560849482033      0.13703941663250
  H          -2.30353357302979     -2.94780032515121     -0.56695404806039
  H          -3.03913884181297     -0.79002595811667     -1.14881180108906
  C          -2.22811333919900      0.93769114875314     -3.18076752707420
  H          -0.58166959002689     -4.20932753091593     -1.67293192320183
  H          -0.99410500257630     -0.83967085767013     -3.41153497213692
  H          -0.31463705038354     -2.86465021541401     -2.87836106973550
  H          -1.30825303489859      1.78408936467720      1.38073769476180
  H          -0.54030779456991     -0.11261307254066      0.12182111430749
  H           0.15157374946824      2.77229611319384      0.90505866474165
  N           1.14735770414809      0.72972970178567     -0.68461144679855
  C          -3.18264618331182      1.57406266640315     -2.17252049491116
  C          -0.98880480383893      1.83076790700446     -3.33350278612847
  C          -2.93007194179839      0.82030415387557     -4.54349653462061
  H          -2.72915699028674      1.60637436194392     -1.18518957392028
  H          -4.11556413213326      1.01893669628860     -2.11738905602985
  H          -3.41691602652059      2.59245745402690     -2.47648589817989
  H          -0.47287409926980      1.92155395360856     -2.38232511713704
  H          -1.28031666531205      2.82361221694963     -3.66965881108194
  H          -0.29726524931553      1.41262169832506     -4.06125555601894
  H          -3.80789145890591      0.18076083509161     -4.46669217376835
  H          -2.25959657743225      0.39158840646026     -5.28456774387823
  H          -3.24541071136430      1.80307435564869     -4.89058914184929
  C           1.70087500083799     -0.56906277224378     -0.97535622687165
  C           2.10262634369178      1.81050783633885     -0.66695935572373
  H           0.89768510158787     -1.30036002375651     -1.03497548598273
  H           2.42374967895006     -0.89581831747978     -0.21569582639493
  H           2.20915135963175     -0.53414006372862     -1.94101610624559
  H           2.69500435337735      1.83441115240934      0.26012613151216
  H           1.57520169377906      2.75599127928011     -0.76820934535292
  H           2.78085227555275      1.70192276852858     -1.51251947336819
