21
Coordinates from ORCA-job NEB E -51.267535790950
  C           0.36312550512500     -0.71183219666950      0.73770471057807
  C          -0.86936085737185     -1.25874343748050      0.36734847325345
  N           0.32319403480648      0.21501262654686      1.87387757904575
  H           1.21072430874808     -1.39245143118543      0.79594067426116
  N          -0.89106274999032     -2.61073633757024     -0.16829673791279
  C           0.62512348449251      0.54764476957501     -0.74186120572088
  C          -0.51780153444790      1.31926938541231     -0.59200302881506
  C          -1.82837565854956      0.67835087949899     -0.68742229544036
  O          -1.94315936436032     -0.54386809340417      0.15094721824059
  C           1.98262295541508      1.19575201906568     -0.57513306678711
  H           0.66249787823266     -0.23748731097353     -1.48884183305692
  H          -0.45202624802865      2.30470778347284     -0.15928266921936
  H          -2.04582614974250      0.30143361991343     -1.69203744789076
  H          -2.63595642015229      1.32111478661461     -0.34346032502587
  O           1.10495142232183     -0.01971282379230      2.75550325535242
  O          -0.52246138653433      1.07398687496557      1.85938317947831
  O          -1.84718689727611     -2.91251885089753     -0.84351879017671
  O           0.05876441636419     -3.31872846766910      0.09309092550104
  F           2.02070876145925      1.99595723823485      0.51090283589083
  F           2.93366746393290      0.25127375202303     -0.40085986366239
  H           2.26783703555583      1.80157521431910     -1.45198158789341
