21
Coordinates from ORCA-job NEB_reactant E -51.290845964170
  C           1.77969191727588     -0.04993008595844     -0.08328881969842
  C           1.38630528035840     -0.22710189548937     -1.35789333717311
  N           1.74476801538646      1.14152324946582      0.69512791537340
  H           2.16487147625126     -0.90809469029081      0.45312457320274
  N           1.43723711589031     -1.65793013958661     -1.84875938483049
  C           3.12271376975395      3.10451851563159     -3.48235331705386
  C           2.65216457838875      2.24884633438468     -2.59134839656916
  C           1.19957573631883      1.93032324507378     -2.43007972174799
  O           0.97978429800340      0.52160503893757     -2.34957363934586
  C           4.57832506107666      3.43899178253340     -3.61646195769548
  H           2.48234244152331      3.65010906019578     -4.15872905610859
  H           3.33306000762535      1.73441743444597     -1.92561728634530
  H           0.62515774744421      2.24194566960148     -3.30361907361627
  H           0.80987007903738      2.43064168698005     -1.53167177666524
  O           2.50072397448600      1.19696631319716      1.63514001658171
  O           0.94371496144283      2.00595774839815      0.38853990761143
  O           1.27420870271061     -1.81141125759845     -3.02476121607140
  O           1.63376214731559     -2.50954748571952     -1.02421050580652
  F           4.77715908351415      4.77078482265372     -3.44916695292469
  F           5.33232254015079      2.81654507854345     -2.68268774198691
  H           4.98254106604591      3.17053957460058     -4.60821022912998
