21
Coordinates from ORCA-job NEB_product E -51.289631861260
  C           2.88172333067873      0.73145571185552     -1.18998132767006
  C           1.60064000538113     -0.04945277112083     -1.18636062351049
  N           3.02209167649045      1.40287666569576      0.15757851960948
  H           3.74186199984948      0.05818491155077     -1.30937945792003
  N           1.56805332564931     -1.13252017608821     -2.31154709496097
  C           2.87386657407496      1.74137618891171     -2.37267924373193
  C           1.67642095257544      2.65303632010159     -2.36202001377314
  C           0.73464350226133      2.60310811847912     -3.28470264349198
  O           0.65122182737831      0.04174846984050     -0.49465654794166
  C           4.17806239688732      2.55139331565667     -2.37169773238260
  H           2.88860691154790      1.14725121029179     -3.29438906802057
  H           1.62340621126519      3.35241669977509     -1.54091456064309
  H           0.77070462240621      1.90713786681102     -4.10804431896785
  H          -0.11325541028181      3.26332992311319     -3.25451992791406
  O           3.92873409686159      1.00135181110439      0.83172349190658
  O           2.20860858062981      2.23098160058086      0.44758251992332
  O           0.57653834309095     -1.79882347377954     -2.34359220031419
  O           2.52429516435711     -1.18122758990909     -3.04479250427163
  F           4.33795254374334      3.24102991137606     -1.22303261502837
  F           5.24214125422077      1.72350501019884     -2.47157059982777
  H           4.21558209093247      3.26634027555479     -3.20720405106899
