23
Coordinates from ORCA-job NEB E -48.727893948120
  C          -0.07739893649072     -1.71216240524189      0.64280288539671
  C          -0.32378089620409     -1.15107826111808     -0.53575533084296
  C          -0.90139702950922     -1.60986251794914      1.88584343850311
  H           0.79603400390282     -2.33896186745535      0.73605717052559
  C           0.51270904051831     -1.43583183375964     -1.76077341527875
  C           0.63642690399646      1.74839400375505     -0.76554585843539
  C          -0.70581074091414      1.91344357831425     -0.29567912881552
  C          -1.67648538748167      0.80328864593488     -0.12420251343966
  O          -1.40830698475898     -0.35965378911870     -0.86182400559679
  C           1.76225245180527      1.71343487841362      0.11049811783043
  H           0.85039589404157      2.01674191894522     -1.79397245683615
  H          -1.07309643210161      2.89617120758221     -0.01978736100433
  H          -2.67009529815532      1.12703440844471     -0.46145783072427
  H          -1.76222398937981      0.59411639173480      0.95800769527073
  F          -0.65149756203497     -2.68777881427874      2.69615832225909
  H          -1.97675840036447     -1.62954789080415      1.66941092809408
  H          -0.64439337876987     -0.72045087328364      2.47913727413095
  F           1.48351991920078     -2.36100385874958     -1.50985361254033
  H           1.01251457106110     -0.52759864275999     -2.11549370860923
  H          -0.12924434816222     -1.83548626071451     -2.55473963895103
  Cl          2.31964300754152      3.54974247500901      0.52696258512378
  Cl          1.42631097130379      1.02172662278719      1.68763197380074
  Cl          3.20068262095546      0.98532288431247     -0.59342552986079
