23
Coordinates from ORCA-job NEB_reactant E -48.844719330790
  C           1.78112241368059      0.35038175133474      0.00456811371006
  C           1.45136610334478      0.74243842916449     -1.22075615652401
  C           1.62064865968492      1.01885876155592      1.33472062816770
  H           2.22398897372249     -0.63171147747096      0.08653582780898
  C           1.68474164207249     -0.15288583494332     -2.41875172158540
  C           2.39274447077417      4.47977601205741      0.37047604730995
  C           2.13169193749303      3.66349400340730     -0.63892277786457
  C           0.78760443172154      3.04736221391638     -0.88938937951902
  O           0.86064597191743      1.88799477117189     -1.68664967940386
  C           3.70390747341761      5.11988625562587      0.64823479149691
  H           1.63037627581692      4.74271632429533      1.09152525580322
  H           2.89338307929840      3.40589642904438     -1.36083640547014
  H           0.18941516086615      3.73997855918612     -1.49431761615888
  H           0.25176931400907      2.86289072366298      0.04785396880124
  F           2.29997110372285      0.29662174195027      2.28503582767138
  H           0.57295083671781      1.03353719493094      1.66458563703390
  H           2.04030613840308      2.03063181797735      1.36716866275193
  F           1.97238688455369     -1.43705389682508     -2.05876090439214
  H           2.52993206632031      0.21365717486495     -3.01356846984769
  H           0.78421059638282     -0.17552724594981     -3.04159729221058
  Cl          3.49920053710492      6.89709147292551      0.67836585992082
  Cl          4.27201940472066      4.59760685275517      2.26672483204247
  Cl          4.95691652425427      4.72515796536217     -0.53264504954228
