23
Coordinates from ORCA-job NEB_product E -48.856520148800
  C           2.53525581339506      1.83731677265135     -0.34857306671724
  C           1.72776381998119      1.20913205841705     -1.49142419812472
  C           2.26983651108776      1.03627589108523      0.93509347373029
  H           3.60143578950206      1.74795119483790     -0.57488535096706
  C           2.41069225101016      0.01940673728779     -2.13453966535142
  C           2.14720239820071      3.33005437459686     -0.20375033314690
  C           1.12539171391676      3.58032797200702      0.87581227216141
  C          -0.15854189589672      3.74263682562438      0.62170534046266
  O           0.65860480249626      1.62631369066736     -1.83456173779434
  C           3.37558923922536      4.20984842563401      0.01893933374148
  H           1.70494686126677      3.64334920570138     -1.15675063185790
  H           1.50580238205765      3.62674260843025      1.88587764719039
  H          -0.54705808717379      3.69367706419485     -0.38144023447806
  H          -0.87095905363273      3.91368698936560      1.40961583296754
  F           2.81159301867369     -0.21856241158043      0.82148493974104
  H           1.19866031891051      0.91070120632252      1.11764383704480
  H           2.75556768502972      1.50504834298475      1.79426409970827
  F           1.64353512641816     -0.51446741891506     -3.12788768138287
  H           2.59521185686467     -0.76868476268743     -1.39608975331915
  H           3.36038075185329      0.33253267721576     -2.58492814846255
  Cl          2.87305308395926      5.90967023922535      0.17381243303988
  Cl          4.26523258035596      3.75445697506875      1.48772229819847
  Cl          4.49680303249823      4.08958534186475     -1.36334070638402
