20
Coordinates from ORCA-job NEB E -32.438911168440
  C          -0.66263535307126     -0.28102706179164      1.53049425636110
  C          -1.96387373202677      0.13835338271024      1.27642236223858
  Cl          0.42940246381919      0.91138378058661      2.18363044822098
  H          -0.50015895031018     -1.25203306458666      1.98227001798682
  I          -3.38908140649781     -1.50997074284829      1.10712784032411
  C          -0.04310479400724     -0.49641584047634     -0.36284092935131
  C          -0.34785745355446      0.76905829469964     -0.85786473258700
  C          -1.69955590046785      1.16778464249270     -0.94646762059910
  O          -2.24597238434425      1.19595188887782      0.66245418670287
  C           1.37097691495352     -1.02460330272422     -0.29019761809925
  H          -0.75820873805062     -1.28481634767668     -0.58616946040977
  H           0.40151539883767      1.54385053243611     -0.80929394577321
  H          -2.41316208269672      0.44623404052347     -1.33410872418500
  H          -1.90610968521178      2.18425692517047     -1.25248978115274
  C           2.47391424885701      0.01654555445148     -0.43496828142240
  H           1.47117543832891     -1.75716309899095     -1.09728772831406
  H           1.51233627303083     -1.57004443631199      0.64492642738188
  H           2.41661964963713      0.50699573377536     -1.40360258988969
  H           3.44222907915077     -0.47219760310748     -0.35866389665140
  H           2.41155101362391      0.76785672279035      0.34662976921859
