20
Coordinates from ORCA-job NEB_product E -32.481229344860
  C           3.19117786601360     -1.11101150972138     -1.14767273848971
  C           1.73527780859810     -0.95299868579573     -0.85196660207918
  Cl          4.01815419215050      0.32953818200328     -0.48306934852383
  H           3.59736312186126     -1.98463027458529     -0.63229963570966
  I           0.72669031506301     -2.88851970491608     -0.85199172825137
  C           3.37571978453660     -1.26809126299637     -2.67584779826608
  C           3.15237883857722      0.03821700525423     -3.38088053611077
  C           2.11858680640258      0.27189969344853     -4.16625048381119
  O           1.10594644447671      0.02289818200333     -0.67087754872878
  C           4.72050728363790     -1.92162234984792     -3.04015173831431
  H           2.59744860986634     -1.96793445102591     -3.00730442900079
  H           3.89287718855083      0.80379239452185     -3.20562662770837
  H           1.36138627748956     -0.47317317612055     -4.35304155747509
  H           1.98394477146532      1.21847835112859     -4.65989191119428
  C           5.97103089658830     -1.16755266573454     -2.60788813013772
  H           4.73019178594366     -2.03308534004762     -4.12696913672782
  H           4.74085134053003     -2.92478417082092     -2.60700452743451
  H           5.98462173553164     -0.16072862241580     -3.01492565422511
  H           6.84991221429177     -1.69167934890541     -2.97649667548587
  H           6.04333271842506     -1.10561224542629     -1.52624319232556
