26
Coordinates from ORCA-job NEB_product E -55.694405896050
  C           2.84311563343358      0.18475813253596     -1.87243668894957
  C           1.54890174262387     -0.39228258778771     -2.41214565529519
  C           2.52864048998434      0.81298564802086     -0.51104618651997
  H           3.55767578666910     -0.61826091970038     -1.67833269267918
  C           1.44540470412263     -1.93499653673536     -2.53798964193600
  C           3.51859439624159      1.17408475141253     -2.85971490543739
  C           2.67360512903621      2.35970864347058     -3.22113208164104
  C           3.09141663113012      3.60659468440833     -3.10758944054670
  O           0.60929946847930      0.26152610070987     -2.75104323802460
  C           3.93142796028170      0.45349311517973     -4.15517400431930
  H           4.42807022152791      1.52843126436731     -2.36342001735124
  H           1.70407078242630      2.13862630817728     -3.64271717614268
  H           2.48281903479942      4.43869226129634     -3.41534509354697
  H           4.05765425534709      3.84807396708968     -2.69484496659277
  Cl          1.36177029348097      2.13523583003211     -0.58818936621708
  Cl          1.84079379727715     -0.45835085125170      0.55048150940452
  Cl          4.01845491078308      1.40524667173052      0.24739160286745
  Cl          1.63034769458415     -2.28532807060908     -4.27835346118466
  Cl          2.64318267830135     -2.87067390699243     -1.64114870313668
  Cl         -0.17643179002262     -2.42768317815135     -2.01204646751910
  C           4.96511447362519     -0.64768613396584     -3.95057494929884
  H           4.35367452507530      1.21164211752139     -4.81805615782072
  H           3.04608808702333      0.04707873905702     -4.64611914877298
  H           5.80890360745968     -0.27738985224592     -3.37280348146139
  H           5.33509350032529     -0.98343262154648     -4.91583322053444
  H           4.54431198598395     -1.51039357602327     -3.44171636734348
