26
Coordinates from ORCA-job NEB_reactant E -55.685699670890
  C           2.11359087772143     -0.15715604179445     -0.51929644900559
  C           1.37141815346634     -0.04248093923983     -1.62796380342066
  C           2.58325819620687      0.92353520325098      0.37953935992441
  H           2.40887563172518     -1.14810502826939     -0.20788394650754
  C           0.95510964411268     -1.33177024968608     -2.33200744465028
  C           3.92826531976152      1.29805795872138     -3.89589981034448
  C           2.60895728300226      1.39682082646996     -3.88916874194032
  C           1.82828572793557      2.01148668053268     -2.77027157763676
  O           0.89536293903645      1.06189180984854     -2.21408397667083
  C           4.73163720643233      0.67239933474903     -4.98714453466303
  H           4.50152647648426      1.69114968085617     -3.06590416134101
  H           2.01702139364949      1.00117621376018     -4.70320840981585
  H           1.17780928212912      2.81149581593342     -3.13208714071473
  H           2.49720653807929      2.40336752677086     -2.00126122713689
  Cl          1.46004105521310      2.29416927996469      0.47433262264938
  Cl          2.77847932687904      0.26680557300375      2.02583589410622
  Cl          4.19375746625494      1.52630855039278     -0.14234640289037
  Cl          2.39675073120065     -2.02274310746952     -3.12505678609745
  Cl          0.32378704510242     -2.52660176005151     -1.18247677376258
  Cl         -0.27194494865919     -1.02336702840221     -3.55907986685740
  C           5.64738501182224     -0.41856023577590     -4.43355945217026
  H           5.34559845137997      1.44450334514522     -5.46004539420372
  H           4.06880079404021      0.25331577937138     -5.74559009515176
  H           6.31839622760256     -0.00840263588085     -3.68234328735561
  H           6.24494797339951     -0.85170421171093     -5.23164797492454
  H           5.05827619602174     -1.20869234049035     -3.97438061941836
