22
Coordinates from ORCA-job P E -34.686513545190
  C          -1.06665478683315      0.47259631460426     -2.85168960364102
  C          -0.48722101614399     -1.46373587522206     -0.65304721414184
  C          -1.15318666923121     -1.84808170327157     -1.93997367679153
  C          -1.40626217740258     -0.99309986196763     -2.91632107242218
  C          -0.17761348498969      0.80585022198446     -1.64935242678977
  C          -0.62876513118003      0.02908617193960     -0.42735247708315
  H          -1.40525196036772     -2.89289242954984     -2.05029226770875
  H          -1.89513440176508     -1.31131639772565     -3.82521550016560
  C          -2.39278833944869      1.22525107102034     -2.88838237778754
  H          -0.92969899561053     -2.02298154048731      0.17509569690150
  H          -0.54925699983046      0.74455713178885     -3.77933258644250
  H           0.57075016586250     -1.74467063700826     -0.70366350713336
  H          -0.20843362200653      1.87956550806774     -1.45680918002904
  H          -1.65833237392711      0.28157559296894     -0.17979125208018
  H           0.85241681823089      0.53196289469725     -1.89090202175431
  I           0.52515764904536      0.64002283589237      1.31608015514526
  O          -3.07379371021544      1.32302116777557     -3.87374971718014
  O          -2.73163036079138      1.74030934034689     -1.70360343067734
  C          -3.97104319309111      2.43615220207986     -1.65343070654302
  H          -4.07236459409186      2.80230505343269     -0.63505908895418
  H          -4.79251050797045      1.76284369283617     -1.90530895960036
  H          -3.96692230824173      3.26605924579734     -2.36227878512096
