15
Coordinates from ORCA-job NEB E -30.107279183570
  C           0.74483556163158      0.61131602250457      0.31235775026159
  C           1.06488902253189      1.01786888093395      1.61687903593016
  C           0.89057892392948      1.48241681832489     -0.82589338638423
  H           0.11951664874510      2.06325713801020     -0.14420300665843
  Br          0.99761083349585      3.12675731884585      1.70186174994667
  C           0.29026270749294     -0.78238720915513      0.06657863258346
  C          -0.93110015693992     -0.87562659856747     -0.77778135591573
  C          -1.99336752229374     -1.57962116595611     -0.43064787544009
  O           1.32075772341266      0.44058418155748      2.61497592179584
  I           1.91423759879544     -1.90455384926112     -0.95818225331524
  H           0.16233404423858     -1.30036734364273      1.01728341142063
  H          -0.89201500869820     -0.33762547392000     -1.71570730997395
  H          -2.03513292389574     -2.13139083239692      0.49417753917613
  H          -2.86370316693542     -1.62997883119087     -1.06065102518477
  N           1.21029571448949      1.79935094391341     -1.91104782824204
