15
Coordinates from ORCA-job NEB_product E -30.192855298970
  C           1.97805063366123     -1.50958916379750      0.20294023905808
  C           3.05589206424500     -1.31632227940251      1.24232355279024
  C           2.34321704261217     -0.79578563832266     -1.00667510745274
  H           1.05559693103271     -1.04793060065121      0.58803182567458
  Br          3.26097966642843      0.56984089252642      1.72734901831598
  C           1.70892903196134     -2.99457361919621     -0.07629544074944
  C           0.53142404678963     -3.17573310878062     -0.96773136739813
  C          -0.47735388244258     -3.97878624857561     -0.68116145502053
  O           3.71915829809849     -2.14030635573156      1.76089202801810
  I           3.45497075004339     -3.93210846922785     -1.00732919575819
  H           1.57951529241125     -3.52405252574453      0.86889738308411
  H           0.55556487349875     -2.61153775384226     -1.89096389144962
  H          -0.50567881188176     -4.55607183210656      0.22878847127226
  H          -1.31278781432376     -4.09285859887595     -1.34870900931687
  N           2.62792187786569     -0.25878469827135     -1.97145705106782
