18
Coordinates from ORCA-job NEB E -41.978646644880
  C           1.05155479991198      0.24002925321093     -0.36302950342484
  C           0.31154047971165      1.28862956963100      0.20554864978296
  C           0.79344243686047     -0.08452712120208     -1.80884846512008
  H           2.11282119535163      0.22468567630133     -0.13844900143718
  O           0.91257975842404      1.98368145862771      1.19752170286149
  C           0.22996729686446     -1.24308821630816      0.73328467727799
  C          -1.12729666572923     -1.09691579376956      0.48638130535482
  C          -1.74339360924815      0.10729930151699      0.89886454484211
  O          -0.95571781885651      1.36670456650973      0.06871223895840
  I           1.18301105961766     -3.06249252007878      0.22051884010443
  H           0.64549324466752     -0.86333022653546      1.65788865616303
  H          -1.58961354502119     -1.66754542181903     -0.30362924103734
  H          -1.53744922329863      0.45027493219844      1.90843361059704
  H          -2.76746858014425      0.26498877466875      0.59016646590365
  F           1.60387177959953     -1.04712086853743     -2.26276577782473
  F          -0.45238201059023     -0.45858992484102     -2.10613589702070
  F           1.04717721566547      0.99544396695825     -2.57885348172665
  H           0.28186218621376      2.60187259346838      1.59439067574560
