18
Coordinates from ORCA-job NEB_reactant E -42.012987802320
  C           1.76514870347510      0.01635353371869      0.02198469293774
  C           1.11626892503031     -0.43356808446278      1.10984945781458
  C           2.05840410777875     -0.88352301559246     -1.11987003039364
  H           2.10181169550909      1.03167088167469     -0.07084331387997
  O           0.82144955675835      0.33754707137987      2.17379169687925
  C          -0.15926231133387     -4.47484525495288      3.08171403156099
  C          -0.35340235396575     -3.55053600513888      2.16200989640658
  C           0.02257215914047     -2.11603009665727      2.35792997622756
  O           0.72164546434575     -1.69879742499539      1.18837871263428
  I          -0.73015134694901     -6.47661292767207      2.83019844571085
  H           0.28413513659626     -4.27569447898770      4.04302997311270
  H          -0.78843136465128     -3.77932413984229      1.20071806049316
  H           0.65375449839056     -1.98152847318553      3.24356238217275
  H          -0.88267128197237     -1.50479982495473      2.47805692526760
  F           2.86275495074258     -1.91750957238848     -0.79922321825902
  F           0.95743981667544     -1.44042509776580     -1.66305206377352
  F           2.67469949053221     -0.22594997433255     -2.11385384880865
  H           1.13913415389741      1.23867288415557      2.04321822389678
