22
Coordinates from ORCA-job NEB_product E -33.698930044700
  C           2.65195712189433     -1.28297232789810      0.60627715812672
  C           1.38398480047313     -0.65561475651467      1.21040296507186
  C           2.86778664831072     -0.65440681900024     -0.67379158739775
  H           3.50696479524834     -1.04774714759869      1.25074995779179
  C           1.59421457486536      0.73742708679317      1.73253269539085
  C           2.49218748985891     -2.82317867813957      0.44942087346987
  C           2.46702462650057     -3.44119587220133      1.82246863274670
  C           1.47802936924706     -4.19508704857819      2.26086126916898
  O           0.33485754741205     -1.23485707093399      1.23885559429648
  O           3.44372020178079     -3.39278803633256     -0.42403841106910
  H           1.53640571194042     -3.01332026563221     -0.05168318542737
  H           3.32078084068634     -3.22782003113376      2.45378869165867
  H           1.48384708936412     -4.62001124823214      3.25042527247506
  H           0.61773991036141     -4.40740250890370      1.64965039686074
  N           3.03689827988827     -0.13979705802815     -1.67993658389242
  H           2.23544096607908      0.70422270118359      2.61232637020049
  H           0.64008148060983      1.18000548919159      2.00601747168715
  H           2.08471669010578      1.34938346724905      0.97755670744199
  C           4.79091595483192     -3.37857553718072     -0.01332531834447
  H           4.94802762106038     -3.96358707998573      0.89855338761332
  H           5.16889169912224     -2.36075517676570      0.13412213699554
  H           5.34422658035896     -3.83972208135794     -0.82913449486511
