22
Coordinates from ORCA-job NEB_reactant E -33.708134827810
  C           1.46367753497030     -0.23393764494066     -0.05630682285711
  C           1.48445186884314     -0.28666794155984      1.28995738656454
  C           1.25347825511364     -1.26763217174252     -0.97340802452413
  H           1.60063981733077      0.73082963948528     -0.52558804195949
  C           1.68356398682497      0.96159143869581      2.10045401910990
  C           3.13619627309118     -3.70226640654570      0.21082963199539
  C           2.74688118795654     -3.15340666854631      1.35588829009015
  C           1.34706440683899     -2.68014770729856      1.60595810048040
  O           1.33046944178620     -1.34370647081940      2.10096333238480
  O           4.35409091675790     -4.18060795652486     -0.11207340972581
  H           2.45536568419991     -3.83081972539761     -0.61980200467776
  H           3.42123552402282     -3.01158551273608      2.18709192332136
  H           0.89279540693785     -3.25751240195767      2.41937869572429
  H           0.72869378502520     -2.77770527635982      0.71104230621530
  N           1.05863048521051     -2.05413570467101     -1.79033479197768
  H           2.69606942212751      0.97742096606115      2.50284363576036
  H           0.99434657476588      0.95872148306958      2.94190904685724
  H           1.52690345727436      1.85315708115328      1.50219658349951
  C           5.37564560329540     -4.08823287280429      0.85362297864100
  H           6.26133193989704     -4.52659852665610      0.39754297324460
  H           5.11612542804640     -4.64534932558222      1.75929410464560
  H           5.57864299968349     -3.04560829432244      1.11754008718753
