20
Coordinates from ORCA-job NEB_product E -49.834832358260
  C           2.37733673987330      0.37555461175132     -2.55248097778451
  C           1.00292335527738     -0.21029407896556     -2.75118302169402
  I           2.53054887593323      0.66417585334301     -0.40063052458840
  H           3.18796026833590     -0.30445555766593     -2.81595566457701
  C           0.89176642136845     -1.71172009806920     -3.00985814492777
  C           2.51708026741226      1.72581637194753     -3.26578513412366
  C           3.67194682593972      2.52426255639482     -2.72364202172042
  C           3.57660815332885      3.79526895976522     -2.38068052431922
  O          -0.00014680663007      0.43360631247576     -2.62281206128711
  C           2.71306391682468      1.53697813758378     -4.77157355955814
  H           1.58228800397096      2.28643760593257     -3.12265064046150
  H           4.61015926324266      1.99152407682086     -2.64574981644720
  H           2.65149359513905      4.34310030682467     -2.45525765814117
  H           4.42644051910269      4.33664350811839     -2.00543128371063
  Br          0.93083858537361     -2.57152127070456     -1.25070978491596
  Br         -0.81658249368442     -2.07795499199460     -3.84906985060680
  Br          2.31210827524610     -2.47656753714367     -4.08600471521769
  Br          2.76527072176095      3.27594108313761     -5.65350065507262
  Br          4.38295518084394      0.60336599598928     -5.17789844717415
  Br          1.24864033134076      0.52443815445869     -5.59612551367204
