20
Coordinates from ORCA-job NEB_reactant E -49.822779297360
  C           1.75707362101421     -0.00708473097340     -0.08978276342077
  C           1.49464534388937     -0.24551986144755     -1.37070716439917
  I           2.20892361503378      1.83665233461026      0.80012160045231
  H           1.70803472772910     -0.79787658693190      0.63710856286845
  C           1.08716515789545     -1.60733822252199     -1.86630879389344
  C           2.86683488099122      2.81080805884817     -4.72336801267856
  C           2.82504521764610      1.67898717708622     -4.03980521106632
  C           2.46831156173378      1.60838255175812     -2.58895600101047
  O           1.50844527510009      0.56944494470938     -2.44900253155931
  C           3.23549258481054      2.95260365556785     -6.14835291113894
  H           2.63947150181555      3.75725149359261     -4.24673537752186
  H           3.04012891602447      0.72403366475201     -4.50049916274763
  H           2.05322931209289      2.55872029669036     -2.23867461882773
  H           3.37142578957830      1.37091401847613     -2.01289627469361
  Br          0.83667516786334     -2.96555286998181     -0.52201310700672
  Br         -0.57904067002686     -1.41944654435220     -2.87347329536327
  Br          2.48459680104425     -2.21616196417307     -3.11086615174414
  Br          1.78013270536995      3.87463619533937     -7.10474268490737
  Br          4.85406786024870      4.08100050012660     -6.27970545611100
  Br          3.59664063014577      1.28514588882486     -7.06954064523047
