19
Coordinates from ORCA-job NEB_product E -46.387350742930
  C           1.56432485553550     -1.30971520433108      1.00367273918370
  C           2.82598164882450     -1.32356447816654      1.85369212653540
  C           1.70787157217556     -1.09145150819639     -0.50045381315276
  H           1.02964303389476     -0.41539420919313      1.36723122955399
  N           4.17507380461142     -1.69891496119400      1.21612613531415
  C           0.69955516033087     -2.50610248301236      1.47922372227846
  C          -0.55345912286432     -2.73525011113155      0.70723751415509
  C          -1.75100505683401     -2.54059228684291      1.23077964924777
  O           2.83750358898445     -1.06072397337885      3.00933239403833
  I           1.84647205525413     -4.37025953187640      1.57518632742676
  H           0.45713738214508     -2.30342406198552      2.52523479804938
  H          -0.44731250244985     -3.12009272179987     -0.29675381358763
  H          -1.88469994289903     -2.18053695915945      2.23779730604982
  H          -2.64465221536878     -2.72838455136196      0.66338151676905
  Br          0.03770265122606     -0.27186587078454     -1.16239461636398
  Br          3.11089405892419      0.27240123064168     -0.81400084394283
  Br          2.04474293219219     -2.63505504441277     -1.61195594009534
  O           5.12605420127158     -1.18096028073348      1.72338508647001
  O           4.15177189504570     -2.48431299308088      0.30377848207061
