77
Coordinates from ORCA-job A2R E -102.912800424510
  Ru         -0.53495594427803      2.06842481595893     -0.22205747442557
  H          -0.62232610392420      0.65449760738822     -0.85568744497059
  N           0.82901515082081      1.25424605170273      1.10605380984810
  C           2.06994592709594      0.92848253751472      0.69784209655418
  C           0.51562122814389      1.05643600983812      2.39949637557227
  C           3.02779298182084      0.43218647541810      1.56929905959482
  C           1.43021665302930      0.55455039917895      3.31295361786247
  C           2.71364599570388      0.23974417699339      2.90268035209800
  H           4.01106850079796      0.19184843047197      1.19497541408295
  H           1.13184774829144      0.41424330780964      4.34038244561697
  H           3.43907828718563     -0.15221987376173      3.59595308633675
  P           1.34760816139203      2.45345308310547     -1.45367936147900
  C           1.43908384671789      2.09048103317919     -3.31656298199742
  C           2.40744864274480      3.99984260008714     -1.08286008779772
  P          -1.97034298515922      1.48915377775180      1.38163943074656
  N          -3.28562647609284      2.45943600633858      1.83745425785837
  N          -2.59083981246505     -0.09253637072660      1.42398342311801
  C           2.39393852391138      1.09613978387701     -0.75369634297673
  H           2.06461589609720      0.19061564092124     -1.27782118557113
  H           3.46747869561762      1.22579448001429     -0.91379063794310
  C          -0.85593850218139      1.44542676394778      2.86524867135167
  H          -1.19955820408692      0.78070619234905      3.66280104160392
  H          -0.81579432544172      2.47158610011324      3.25178922131503
  C          -1.77051773281681      2.78398889875306     -1.38241707008924
  O          -2.56985712363282      3.24606183693073     -2.08403612532318
  H          -0.42879935788629      3.42529441114263      0.53613105778707
  C           2.78912355830989      1.56982421662830     -3.81161394423291
  C           0.38652563552674      1.01844402992221     -3.60319566521923
  C           1.02405801351923      3.35112553815438     -4.07626997437061
  H           3.02072183367318      0.60227796844361     -3.37186556449108
  H           2.73678378881016      1.43868513097616     -4.89263755146855
  H           3.60466282963588      2.25186247753799     -3.60094602903684
  H          -0.60525553524324      1.38094536209848     -3.33811960150092
  H           0.39588418792362      0.76668740805188     -4.66368758189155
  H           0.57715082150471      0.11220194116788     -3.03344920043354
  H           0.14026689831219      3.78642872811950     -3.60741954741483
  H           1.81834489841638      4.09235072522229     -4.10169342348196
  H           0.77260280997961      3.09844151981684     -5.10616692586454
  C           2.71036416511779      3.95114148459960      0.41847834958460
  C           3.73517416185204      4.11900968164073     -1.82764234676444
  C           1.53909211995736      5.23053332335880     -1.35162821059071
  H           3.42803789269294      3.16970451732215      0.66309883745565
  H           3.13067569958208      4.90362708090985      0.74078843117176
  H           1.79456233289096      3.78258145620875      0.98413669464442
  H           3.59290543526112      4.29187234826379     -2.89041975512124
  H           4.28306994334416      4.97308450609441     -1.42829071099730
  H           4.35554310337912      3.23578066382246     -1.68703328328734
  H           1.45434770641932      5.44526760734423     -2.41241400514142
  H           0.53868190332594      5.06714097632507     -0.95012580483388
  H           1.96734617245572      6.10618159746676     -0.86482379619958
  C          -3.64330598865071     -0.48228279999736      2.35118658276187
  H          -2.82055016019245     -0.35651074245954      0.46975795342970
  H          -4.55788967579009      0.10489532721415      2.22628491989974
  H          -3.87751533635842     -1.53666191656812      2.20126703437079
  H          -3.28642199103289     -0.35493782109566      3.37296291830310
  C          -3.61286463096872      2.83300551153946      3.20544364379536
  H          -3.33346189077285      3.25913710309533      1.21341856925960
  H          -2.99950072764316      3.65605260281207      3.58708817736392
  H          -4.65993433541897      3.14113975849410      3.24359259879879
  H          -3.48414894384521      1.97304609484570      3.85941671626277
  C           1.00254563129384     -2.42958970400526      1.78391703206920
  O           1.97726554918072     -2.43425979264238      2.50822483354057
  C           1.14193406635747     -2.40398323836005      0.30718553328592
  C           0.05578883981459     -2.31132508510078     -0.56126647342329
  C           0.25878581598303     -2.31553251779130     -1.92916924974623
  C           1.54103969381589     -2.40239613126279     -2.44799214554831
  C           2.62950513850520     -2.48334813451721     -1.59221519769178
  C           2.42951758370777     -2.48631896070846     -0.22615478016524
  C          -0.39414566939627     -2.44826954704466      2.34153563786277
  H          -0.94852728033796     -2.23131851919238     -0.17915680841877
  H          -0.58792224592452     -2.24313703385654     -2.59560681391713
  H           1.69233474664833     -2.40418491335957     -3.51797028920956
  H           3.63069266198247     -2.54836283060449     -1.99372927182437
  H           3.26149784645548     -2.55785296648472      0.45893561857205
  H          -0.34777050395311     -2.49788899080607      3.42691431728219
  H          -0.94049094581165     -3.30955465764687      1.96321459185835
  H          -0.92117729569995     -1.54334456029046      2.03778031194054
