77
Coordinates from ORCA-job TSA2S_3S E -102.869445674350
  Ru         -0.89156460512887      0.47128049944719     -0.63399258218294
  H          -0.48438678901221     -1.23016001028238     -0.51534895608526
  N           0.22296669998557      0.66415445271655      1.11783800029598
  C           1.53636412732909      0.33944678400126      1.05091167479891
  C          -0.34551086769927      0.95684442561942      2.29043824947632
  C           2.28341380490789      0.22386127367082      2.23770648250948
  C           0.35064136760591      0.86388909894458      3.48504253535938
  C           1.68540455939349      0.47137240622654      3.45043032132075
  H           3.32276635178190     -0.06076435130397      2.17580631845812
  H          -0.13788709632898      1.09568025449652      4.41778794376796
  H           2.24709383617027      0.37967958545209      4.36814119179073
  P           1.20408459413378      1.01327961107993     -1.53182163125617
  C           1.87721007797754      0.34702287183526     -3.17528706534506
  C           1.75478444283871      2.84422124371645     -1.36102487917178
  P          -2.56085566514889      0.30219588558849      0.92509310410323
  N          -4.01255472849497      0.96391075155433      0.44319752634137
  N          -3.19215349851628     -0.90618485485722      1.93727529977634
  C           2.09661932465492      0.08114184642458     -0.25625933443394
  H           1.74210515238176     -1.23688213325289     -0.53057119206759
  H           3.18417597898780      0.08990992676334     -0.29267831204504
  C          -1.77347313422884      1.39585715589687      2.21727223059942
  H          -2.26987860650674      1.39901022255064      3.18763978601994
  H          -1.81567213683793      2.40528178551968      1.78798781288915
  C          -1.92066589414655      0.22894850401818     -2.14070727049720
  O          -2.62525454781353      0.09446484936591     -3.04678960724720
  H          -1.28234550571599      1.95872536121174     -0.63766018314449
  C           3.35739339436841     -0.02712751666802     -3.11474968186061
  C           1.08023331143063     -0.92384411090410     -3.46726483470528
  C           1.59823484154592      1.32725947009671     -4.31423216303481
  H           3.50998289314037     -0.85734818669842     -2.42976072367974
  H           3.67962005965678     -0.34917937223490     -4.10474138288091
  H           3.98801263546260      0.80226382860357     -2.81160955697912
  H           0.01243380038722     -0.70054801823211     -3.50449713592753
  H           1.37707557129215     -1.33611967982486     -4.43124884194396
  H           1.27528585348776     -1.67530850349769     -2.70543697724989
  H           0.56509835062613      1.66982936924564     -4.26595854602310
  H           2.26475335795537      2.18458767834217     -4.29631562969504
  H           1.74199845459787      0.82130414711840     -5.26894002646670
  C           1.53069756347480      3.25632753042832      0.09659046501152
  C           3.22927522265809      3.07588354244960     -1.68370840364428
  C           0.85012523589057      3.72161970461580     -2.22895428368792
  H           2.17855298485290      2.70499753341483      0.77598933360665
  H           1.75228581996277      4.31710820881246      0.21377138086985
  H           0.49156239758729      3.09584910589821      0.38134800964587
  H           3.44884039149950      2.92743417141401     -2.73653499463736
  H           3.49271179580400      4.10414854970979     -1.43471879266652
  H           3.86247127121126      2.41743837794400     -1.09100952746577
  H           1.14634012811349      3.71489174232042     -3.27185906681044
  H          -0.18056922879769      3.37118664679216     -2.15357654745369
  H           0.88763821821616      4.75287625924355     -1.87981842348960
  C          -2.61203945538036     -1.29607665190228      3.21574809004780
  H          -3.43323049385287     -1.71779604682816      1.37719738997945
  H          -3.07168164617815     -2.22849309074010      3.53711026656486
  H          -1.52908840306311     -1.44187735769072      3.18844582631639
  H          -2.84180701205044     -0.53690137262843      3.96312425021696
  C          -5.04051587448395      1.41016221364358      1.36628991223794
  H          -3.93172607937284      1.51641460119455     -0.40250351208945
  H          -4.90028525655994      2.44695937143477      1.68627003033373
  H          -6.01956907698392      1.31993418786960      0.89378573612474
  H          -5.01225186390144      0.76235971272832      2.24049216902074
  C          -0.06837451084655     -2.37118208243260     -0.48577431697418
  O           1.25045700965433     -2.37619680747537     -0.75516349168071
  C          -0.36147027486361     -2.92439339000421      0.90503852714787
  C          -1.51427154969539     -3.64436009673862      1.20373638536033
  C          -1.66452371048948     -4.25748336282786      2.43580525668811
  C          -0.68012777753086     -4.14368455738313      3.40241624376867
  C           0.45989945916541     -3.40967068992025      3.12493774494659
  C           0.62022656043884     -2.81926134129805      1.88509973830067
  C          -0.88600351173592     -3.11456732661627     -1.55553251241424
  H          -2.29842833971905     -3.75651154457795      0.47009066222331
  H          -2.55518965607625     -4.83666207604243      2.63765054712365
  H          -0.79869936230823     -4.62776788148866      4.36082123247629
  H           1.23774612119749     -3.31121919321299      3.86861146022205
  H           1.53583009341984     -2.29588852226485      1.65522359986415
  H          -0.73400893651752     -4.18584063876515     -1.43503370251496
  H          -0.54050466317205     -2.83169052896638     -2.54445861746284
  H          -1.94584335608793     -2.88002345185976     -1.48262002868995
