21
Coordinates from ORCA-job NEB E -40.313416701700
  C           0.41220855417368      0.30811793763931     -0.96492117476644
  C          -0.87753629565254      0.85398558156135     -0.78121947747757
  C           0.49896323705424     -0.82942640299188     -1.81987555354774
  H           1.23008916470678      1.00897661588301     -1.12060770460743
  C          -1.06055194749074      2.30744390159177     -0.52432777977575
  C           0.76977452783924     -0.52398971256448      0.71338479999104
  C          -0.36135102987111     -1.33295624185631      0.85123454445949
  C          -1.65720940157431     -0.71754487355730      0.89580874198241
  O          -1.86970062795082      0.07045200153225     -0.45356611793912
  C           2.12752951353579     -1.16213564699399      0.60015122887224
  H           0.78441408501623      0.39639592034996      1.29251424530273
  H          -0.29787477834496     -2.36663178996436      0.54290139357056
  H          -1.77187413229438      0.07179919290837      1.63906068250884
  H          -2.50052912826378     -1.39939651997511      0.90165007636237
  N           0.55840596968058     -1.72798881972976     -2.52380635100285
  Br         -0.10251345419619      3.41566424208504     -1.79936038889580
  Br         -2.94002691364661      2.75917833384521     -0.54591658425737
  Br         -0.35785008164080      2.83795525031662      1.33387104964368
  H           2.86692274982669     -0.45422251578526      0.23365534253465
  H           2.10669698804854     -2.02540167479473     -0.06036632314626
  H           2.44201300104445     -1.49027477949970      1.58973535018829
