21
Coordinates from ORCA-job NEB_reactant E -40.344502061200
  C           2.28195787772354      0.13528357441826      0.43604431894395
  C           1.58902025842989      0.58875326863014      1.49576158978689
  C           2.47246356109587     -1.20290917449908      0.06391965024080
  H           2.75933026647788      0.84374582079857     -0.22801243629207
  C           1.52363559530323      2.06584886727688      1.77684334062548
  C           3.31081518930374     -1.36163978367437      3.41543473087387
  C           2.35119769442163     -2.04140521388868      2.80978256789132
  C           0.98621890903632     -1.50042563698435      2.49264716151892
  O           0.93178024548313     -0.08135547499447      2.44445751156243
  C           4.66371120246684     -1.90246006336486      3.71780179605531
  H           3.14504452515820     -0.33835920754112      3.73008335450236
  H           2.50599232214496     -3.06351598270578      2.49777697077716
  H           0.27556252996457     -1.75947092670310      3.28540181150307
  H           0.62014476248245     -1.91784314592346      1.54782544253617
  N           2.66439185247198     -2.27045693817405     -0.31157108116118
  Br          1.28621407972475      3.13411040950121      0.16958698765897
  Br          0.07688182942304      2.47846606332622      2.99501363665671
  Br          3.21663877003514      2.61312681301667      2.63174779744203
  H           4.76011776290676     -2.92746870610578      3.37100746392658
  H           4.84648440183221     -1.86828531468228      4.79110744675684
  H           5.42589636411389     -1.29103924772657      3.23603993819439
