22
Coordinates from ORCA-job NEB E -43.455243209900
  C           0.30956749269310      0.60321217460068      0.87989909174804
  C          -0.92812544314167      0.08297706163099      1.30318909192988
  C           0.30514033833118      1.98737159681643      0.27516077836562
  H           1.14777754362980      0.45170307926811      1.55314261803499
  N          -0.96730927638292     -0.91145309950433      2.25114780796128
  C           0.55631861937501     -0.65463961634534     -0.61087679536997
  C          -0.58445599370580     -0.46136098587621     -1.39848625659628
  C          -1.84390133319484     -0.72564259687284     -0.77799186108357
  O          -1.96718239591974      0.20937223005564      0.52882302266263
  C           1.90296125409912     -0.50890439180511     -1.24997975410699
  H           0.55344090452865     -1.53757620003349      0.02997628306281
  H          -0.55391630452301      0.24027878990441     -2.21819838999791
  H          -1.94275624967088     -1.71069508766002     -0.32467243818147
  H          -2.72002626504112     -0.44689204844623     -1.35042488274247
  F           1.58955989125575      2.42461477833178      0.09080038230482
  H          -0.16702307554826      2.70290540912286      0.95862540629557
  H          -0.20385848703609      2.02507364703481     -0.69352758229001
  H          -1.88250921533649     -1.23985774701400      2.51452331985530
  H          -0.26834921206288     -0.91738257025836      2.97410808637583
  Br          2.23607931793661     -2.17872683311716     -2.27519214735005
  Br          2.07712092084972      0.95035550018907     -2.50814158907220
  Br          3.35144696886475     -0.38473309002172      0.04809580819414
