22
Coordinates from ORCA-job NEB_reactant E -43.480556921310
  C           1.54962232676987      0.10797419102983      0.16558511830866
  C           1.69745460359553     -1.19901947436562     -0.08574209648857
  C           0.71093814013327      1.00739595707888     -0.67464677160034
  H           2.09162716848855      0.55053659443263      0.98450422316261
  N           2.51997711109651     -2.04065658937502      0.63765785315060
  C           3.26653546338787     -3.13275554778665     -3.56951439031698
  C           2.92876603725733     -2.39328729541793     -2.52526240838312
  C           1.62137905034325     -1.67476762917106     -2.40171178666669
  O           1.04543170647203     -1.84063602841599     -1.11547098805118
  C           4.54717814309792     -3.84745783556848     -3.75007524407514
  H           2.59148474026257     -3.25360885880178     -4.40868217850669
  H           3.59315815587208     -2.26757726119524     -1.67983210346444
  H           0.88254517813062     -2.06733383688907     -3.10398240732766
  H           1.79123314464544     -0.61106364664360     -2.61733314909149
  F           1.45680826833589      1.59250298436675     -1.69661812979993
  H           0.30555433875015      1.83834797154771     -0.09168146027561
  H          -0.09649319352705      0.45936193895352     -1.17054737195391
  H           2.26546081853362     -3.01590554057673      0.58882107711643
  H           2.77816116607319     -1.72456257282535      1.55854294514402
  Br          4.18851011444468     -5.76250200076294     -4.06780827271761
  Br          5.48009400762338     -3.14338860820210     -5.34676061305803
  Br          5.76907351021331     -3.72319691141172     -2.25104184510494
