22
Coordinates from ORCA-job NEB_product E -43.510638411360
  C           2.87091064714358     -1.11009333537810     -0.90888224179726
  C           1.56465987687942     -1.31837604635181     -0.12752268472396
  C           3.01089792779406      0.37490977990875     -1.24247805519643
  H           3.71841565248268     -1.37751557369213     -0.26697560005701
  N           1.57187278617493     -2.40349117264272      0.67478096003612
  C           2.81315729665180     -2.09247890671049     -2.10169752031016
  C           1.58176591825101     -1.87767577773618     -2.93939416870674
  C           0.72674623639055     -2.84132143394145     -3.22392416277912
  O           0.60791340917562     -0.59326314734932     -0.24743360254372
  C           4.05292530538372     -2.11155725521423     -2.99805034960217
  H           2.75748930898338     -3.10106581656362     -1.66621016136767
  H           1.42522776851978     -0.87762102756478     -3.31495463523805
  H           0.85599117493974     -3.85000265500332     -2.86579294685204
  H          -0.14169546490530     -2.65787055645839     -3.83086446777971
  F           4.32996951209275      0.68883209660252     -1.44524695197795
  H           2.66741019564937      0.97562887396791     -0.39522663343509
  H           2.45971343033627      0.67313397560056     -2.13655182012069
  H           0.74943677952154     -2.59536976936328      1.22364691969153
  H           2.39497622689512     -2.95404606003643      0.84366457928859
  Br          3.94799892782947     -3.71010500754476     -4.14532604015045
  Br          4.22325060324367     -0.59262528125620     -4.19227071356602
  Br          5.69896648056686     -2.28682590327252     -1.95678970281201
