23
Coordinates from ORCA-job P E -32.538047872230
  C          -1.44666390424150      0.37237722430116     -2.43024535013140
  C          -0.46398473410367     -1.90912328815620     -1.19451519382397
  C          -1.85980766495769     -1.91067017790161     -1.72824538895716
  C          -2.32268826916564     -0.84089091631603     -2.35482717432742
  C          -0.87226125325623      0.62192403528217     -1.02829586397246
  C          -0.08585460778131     -0.58113771641903     -0.49094700354660
  H          -2.44575000575155     -2.80962913286423     -1.61465982241422
  H          -3.31565943686480     -0.79487608458582     -2.77430099782751
  C          -2.21913736668850      1.58432480199735     -2.93563970045196
  H          -0.30918026933066     -2.75107134859170     -0.51909858086277
  H          -0.60869813164023      0.18737246590455     -3.11301490671052
  H           0.22634934676270     -2.02084963989327     -2.03794580708396
  H          -1.69789800966466      0.84938137694190     -0.35181030259933
  H          -0.28762383740009     -0.68592418465210      0.58835553757007
  H          -0.19548300193987      1.47607797255231     -1.05294021076584
  O           1.28886255690427     -0.28319198535097     -0.66298895471330
  F          -1.38424778389889      2.66189401893419     -3.10550829896827
  H          -2.98953395454229      1.89405978659664     -2.22089404377728
  H          -2.67327007346168      1.38512627483457     -3.91247784767482
  C           2.16712445463126     -1.12620619880048      0.03424774377518
  H           3.16118550531040     -0.69968555936877     -0.08744009478463
  H           2.16458328681230     -2.14773866782718     -0.36288869111359
  H           1.91603715426835     -1.16290305661744      1.10219095316178
