23
Coordinates from ORCA-job R E -32.452005030830
  C          -1.10439124897500     -0.27352479988509     -2.94673379950850
  C          -0.83440653567572     -3.19891769684361     -2.21876726027001
  C          -1.75992092762138     -2.35629872201859     -1.77079002100196
  C          -1.83827706638990     -0.93389721646141     -2.05318527631998
  C          -1.21030889843164      1.49232134379906      0.73945311983858
  C          -0.31362233943990      0.55765312825272      0.47137965752836
  H          -2.53647976416581     -2.73325150586907     -1.11708566465341
  H          -2.56028252075997     -0.38294467568860     -1.46381736297736
  C          -1.17777005843327      1.20137586907325     -3.14427362880501
  H          -0.85227120632907     -4.24308069902837     -1.95826920520623
  H          -0.38450627016006     -0.77802444888933     -3.57449400061900
  H          -0.02984351334405     -2.88585291646246     -2.86197841374900
  H          -1.96521136807391      1.33010330580458      1.48447416143129
  H          -0.30896918442116     -0.39694470536160      0.98721702162321
  H          -1.20598201683046      2.43606836869854      0.22587428321375
  O           0.65850434314494      0.72896254452431     -0.46309314141203
  F          -0.93488608815523      1.53399264372852     -4.45853250545933
  H          -0.40396567369642      1.70387583504681     -2.54809177822549
  H          -2.16161776581129      1.60627229420963     -2.88647599000473
  C           1.54268068891496     -0.35381204464084     -0.63030883036444
  H           2.13112072060283     -0.52936845312487      0.27672941354238
  H           2.21191583942510     -0.08098835343277     -1.44419609188248
  H           1.00217085462642     -1.26931909543081     -0.89222468671859
