17
Coordinates from ORCA-job NEB_reactant E -37.747322282680
  C           2.21110083488233     -0.67054857078517     -0.15003259623055
  C           1.37058948806292     -1.44326634523085     -0.82457522719217
  Cl          3.32488350114376      0.46839234658418     -0.82809135405885
  H           2.25583248184207     -0.71620039628676      0.92427204486047
  I           0.13307159813384     -2.74712019251069      0.28842314900268
  C           3.71310073271846     -2.62583404617983     -2.58358716598672
  C           3.28238339787360     -1.53212223716558     -3.18929279400549
  C           1.87720174777100     -1.01948799316877     -3.12577399900772
  O           1.08364952987497     -1.62268693219730     -2.11820052761338
  C           5.12964064022529     -3.10689378603916     -2.65293283857305
  H           3.07771835257330     -3.24426349109824     -1.96643738816108
  H           3.95175720157680     -0.94037218336777     -3.79720498033365
  H           1.35674891560866     -1.26592049736423     -4.05852974030425
  H           1.88043259331669      0.07003147815465     -3.01338603135445
  F           5.90765338904137     -2.30920892715672     -3.41993951346159
  F           5.69045500894387     -3.10840323401439     -1.41386371143379
  H           5.21088058641108     -4.13469499217337     -3.04644732614642
