17
Coordinates from ORCA-job NEB_product E -37.761684915870
  C           3.01920245172900     -1.81272723071071     -0.53058683567406
  C           1.61532984083190     -1.28662140850982     -0.45022219987549
  Cl          4.12441055286394     -0.56267867466318      0.12283424910377
  H           3.12277398598492     -2.70014818731915      0.10105421851938
  I           0.17482461581479     -2.88906504816512     -0.71845539392447
  C           3.35752575142008     -2.15438715822924     -1.99398816879111
  C           3.04615233660832     -1.00097947252931     -2.91045260707049
  C           2.18106358731792     -1.08000164992613     -3.90244100426142
  O           1.23831410563782     -0.18770855087079     -0.28244354678588
  C           4.82686030650144     -2.58914795333801     -2.13498022630833
  H           2.76266278439482     -3.02733819333136     -2.28892016907123
  H           3.59032445984428     -0.09049377108337     -2.70540135378158
  H           1.63976906456734     -1.98668361766476     -4.12037650356391
  H           1.98240315479514     -0.23821632239514     -4.54165901899705
  F           4.96255267922209     -3.33801759844715     -3.25384918841508
  F           5.66380825041244     -1.54475148030509     -2.27894482064229
  H           5.18082207205377     -3.19233368251169     -1.28316743046076
