19
Coordinates from ORCA-job NEB E -40.631661903510
  C           0.68679640314744      0.41173203460256     -0.99509812248156
  C          -0.68725444945437      0.13257403063162     -1.17369617446702
  Cl          1.84046730152179     -0.71341706857297     -1.66247193450117
  H           1.01851097145673      1.44060778968305     -1.09478968543312
  C          -1.68752361747379      1.26683908311227     -1.06896997385751
  C           0.76015589098819      0.04818354322050      0.89282121739373
  C           0.30876690023289     -1.27735624166909      0.98670552988262
  C          -1.01729500397044     -1.56068919620838      0.61628614496493
  O          -1.12101027060020     -1.06267875848991     -1.00797326739752
  N           2.15910207429561      0.29681718027382      1.21849559863950
  H           0.14325849214795      0.87385408498908      1.23574352630126
  H           1.05909573232806     -2.05371530207777      0.93675406273257
  H          -1.80133925163878     -0.92076775317649      1.00829310850790
  H          -1.30479867593854     -2.60065647102866      0.54972862808890
  F          -1.08088251314195      2.48989179352661     -1.06838152410055
  H          -2.26528245580442      1.18713722998607     -0.13662897333225
  H          -2.37888846203498      1.23762392810645     -1.91849289822027
  O           2.93681946264258     -0.61668883782098      1.11126136750317
  O           2.43130147129623      1.42070893091221      1.57041336977638
