19
Coordinates from ORCA-job NEB_product E -40.670189984960
  C           2.94116866750884      1.55034075431165      2.07631922113031
  C           1.41887050714938      1.68913309886238      2.12454203588942
  Cl          3.53815599146718      1.03611982425216      0.46833458435424
  H           3.37330931588132      2.54441090933657      2.26043321077910
  C           0.75896184096484      1.97696966310976      0.79320650691144
  C           3.42802386558133      0.60102289539713      3.17565799468675
  C           3.18185172465864     -0.84619448733674      2.87454665929217
  C           2.23593835396379     -1.54975110574288      3.46675652154134
  O           0.82406496694136      1.60321684649295      3.15990708373245
  N           4.88638964116845      0.84642076206549      3.43379867082610
  H           2.90159493039268      0.88911368492527      4.09646832692242
  H           3.82791666068191     -1.28436864756701      2.12825031598705
  H           1.58719817614742     -1.11996217526664      4.21207063229108
  H           2.06785167682212     -2.58298186977406      3.22022623845383
  F          -0.55307520196922      2.29654498309972      0.96412197858615
  H           0.80310039110914      1.08437468973395      0.15741989878235
  H           1.24794611650463      2.81655627045115      0.28668200870043
  O           5.57044983249466     -0.11152884438577      3.66879608840385
  O           5.25358254253152      1.99426274803493      3.41296202272950
