19
Coordinates from ORCA-job NEB_reactant E -40.671373022840
  C           2.26367001057573      0.51061184911617      0.57314581513288
  C           1.43469859074373      0.95600669651938      1.51263328977086
  Cl          3.38266200150048     -0.80474488470422      0.66582237630142
  H           2.28499587248469      1.00412650810051     -0.38415677255746
  C           0.53134159226435      2.13904908540085      1.23200881441817
  C           3.92430471673098      0.85566986559962      3.58209416939272
  C           3.32661151175312     -0.32979835751369      3.60211885418225
  C           1.88260634231560     -0.56988952319953      3.31867731166998
  O           1.19146293560418      0.53976731268243      2.78579674183162
  N           5.31901491777019      0.98522971429355      3.88140313923038
  H           3.44555056140325      1.79157967778581      3.34006584050805
  H           3.90950560496786     -1.20474760635244      3.86120962764206
  H           1.37200581116473     -0.77960547461443      4.26710539268763
  H           1.77000566518156     -1.44996263707990      2.67558731493152
  F           0.69891244493805      2.63013629516894     -0.02770714130293
  H           0.74718194994164      2.95207956970197      1.93443715593568
  H          -0.51784688170964      1.83962816106737      1.33312536507596
  O           5.94150334891915     -0.01232985402070      4.17375529684610
  O           5.78111300345034      2.10419360204830      3.82347740830312
