18
Coordinates from ORCA-job NEB_product E -39.690971390510
  C           3.05910735895394      0.54566440990410     -0.56297470787700
  C           1.63235784430864      0.40106054411850     -0.97046167879625
  H           3.09680256623689      0.88291310143254      0.47650608245257
  H           3.55781622375865     -0.42211463504546     -0.65754747462703
  N           1.48042590149817     -0.22406507375320     -2.38464978467291
  C           3.76582717041043      1.57797125044221     -1.45431006547542
  C           2.92260653887776      2.81016320724805     -1.64774491119567
  C           2.64562295074687      3.31817027676583     -2.83359794557392
  O           0.63783909989596      0.69304497915001     -0.40481882375059
  N           5.02618486878920      2.04130520311404     -0.78136269214607
  H           4.06336311727791      1.15610508274661     -2.41850909133397
  H           2.55967909092074      3.26408916934719     -0.73567824137194
  H           3.01143202112287      2.87329785115037     -3.74440953403939
  H           2.03668015817985      4.19829882458974     -2.93933035741334
  O           2.49213267873269     -0.60532970398138     -2.92363355893941
  O           0.36326991647799     -0.26304338050266     -2.81709682668667
  O           5.01465452846107      2.13935322750462      0.41745486922911
  O           5.93799796535039      2.32101566576888     -1.51163525778210
