23
Coordinates from ORCA-job NEB E -53.596128004630
  C           0.21539452584479      0.08470975980153      0.95269045848597
  C          -0.66043512211312     -1.01357066463283      0.86582772723549
  C          -0.37171011675155      1.40320207490328      1.41428959089033
  H           1.14887422296565     -0.09519960979983      1.48217107626968
  C          -0.08882966113737     -2.40432346361301      1.07771874146839
  C           0.69238042990289      0.33122597657792     -0.88295040166183
  C          -0.56088604610305      0.42410632708823     -1.49800337337703
  C          -1.46545484930375     -0.68113050968743     -1.39190305182381
  O          -1.75009266821916     -0.91584056350994      0.15379391145933
  C           1.65440196700771      1.49097285443572     -1.01263867321956
  H           1.22311338064957     -0.61277640396502     -0.96777355459408
  H          -0.96590183615084      1.40458362415428     -1.69896681348226
  H          -1.06170004330033     -1.64785040099373     -1.68805420666371
  H          -2.45833203152891     -0.51031736909975     -1.79189856568576
  F           0.56363994814896      2.35504347018925      1.52509020225114
  F          -1.35448148032438      1.89530131988055      0.66736070741295
  F          -0.87800255438666      1.24948467983841      2.65372773111446
  F           0.69340447447963     -2.77633297503065      0.01426233141985
  F           0.72454926524802     -2.44150367321952      2.15339420476133
  H          -0.87439904615098     -3.16359602153952      1.19257302649112
  F           1.00006397537426      2.68278579947899     -1.14930399478857
  H           2.25360566165830      1.35674892548615     -1.92197895479263
  H           2.32079760419032      1.58427684325690     -0.14942811917081
