23
Coordinates from ORCA-job NEB_reactant E -53.628674736830
  C           1.61831145073926      0.17583300917058     -0.35021510021268
  C           1.52769024798871     -0.76123284052314     -1.30244286202668
  C           1.36469953021485      1.64259333425332     -0.38773832361147
  H           1.90754471047325     -0.16006465067663      0.63461344972213
  C           1.83412533417864     -2.19176411341074     -0.86346338405480
  C           2.59137987567994      2.25299430371861     -4.02486496003698
  C           2.36598936785188      0.96875113894466     -3.81002512696471
  C           1.04324228616514      0.40558676769107     -3.38623775168694
  O           1.19937591522319     -0.77084205528629     -2.59150806297131
  C           3.90061665743609      2.81293148959874     -4.47290451951530
  H           1.82143496801481      2.99613860538452     -3.87654849027881
  H           3.14908088109818      0.23915183912236     -3.96116170256970
  H           0.50406094007208      0.03664485766498     -4.26669778533448
  H           0.42081673903705      1.15290527273813     -2.89256146035255
  F           2.23340032290574      2.34051256670709     -1.14581380551537
  F           0.13768853872330      1.97795197117022     -0.84340457054263
  F           1.45128846071389      2.16211337457714      0.84192787773469
  F           3.10934823534326     -2.29318222946801     -0.42774737683604
  F           1.05152445787542     -2.55592555123233      0.17565610548347
  H           1.68493193889565     -2.90709922347342     -1.68460420427079
  F           4.82400712861243      1.83162584082091     -4.72281504756170
  H           4.32473590586729      3.46164806393236     -3.69653299772033
  H           3.78540610688994      3.38522822857587     -5.40180990087702
