23
Coordinates from ORCA-job NEB_product E -53.627955720010
  C           2.71315082139867      0.53675846379307     -1.56828370292667
  C           1.54842205125684     -0.31890731309534     -1.10511231337276
  C           3.03012450783220      1.58561004908478     -0.49437549244253
  H           3.61681515734412     -0.07810892183981     -1.65255397996408
  C           1.59911968824073     -1.78740003206451     -1.60120160827857
  C           2.35945506333603      1.09963303388330     -2.97931202932309
  C           1.00858966974035      1.76644878029871     -3.00303711007679
  C          -0.03170195109561      1.25881282923204     -3.63505761274467
  O           0.62624610719295      0.06648689816053     -0.45302679450075
  C           3.43693260490557      2.05222976885379     -3.51215017062343
  H           2.34263479479710      0.23996222431325     -3.65752997735853
  H           0.93988847705105      2.70750873626272     -2.47888473004606
  H           0.02027853310530      0.32017742923360     -4.16343737971838
  H          -0.98200256279119      1.76220875074117     -3.64447567933926
  F           4.24134088407422      2.12173747637965     -0.68534627640411
  F           2.15829747154834      2.57894771057119     -0.39462730353004
  F           3.08539812113367      0.99126918000325      0.71325678703914
  F           1.25435131147022     -1.83682217818100     -2.90988117975653
  F           2.85169640628024     -2.28539274998268     -1.51927719812284
  H           0.91465706663294     -2.43234245758359     -1.03245628712319
  F           3.37748004425335      3.27333154747628     -2.90250859767780
  H           3.26709402424799      2.22947735789948     -4.57935203741035
  H           4.44713170804493      1.66127341656010     -3.34986932629870
