21
Coordinates from ORCA-job NEB_product E -45.542502104070
  C           0.09841213139900      0.33998877159764      1.06357850765346
  C           0.91921539803310      0.79415969275587     -0.12654726919467
  O           0.91140939166183      0.03079697734622      2.15677103946924
  H          -0.48841314093313     -0.53946641015689      0.73916569835291
  F           0.10255401489365      1.02079408546561     -1.19941372898050
  C          -0.87798830619300      1.48503045502536      1.43195275556474
  C          -0.10415938668263      2.67487711164187      1.93269395035130
  C          -0.17865962378798      3.86940397582654      1.37960296403007
  O           2.07910801881803      0.94835756214864     -0.23499712415240
  C          -1.91678104603585      1.04630268435302      2.46773299455809
  H          -1.43622636938878      1.75606457884456      0.52866897889781
  H           0.54088958781277      2.47518265324637      2.77441964515866
  H           0.39639949358374      4.69780083349608      1.75370640567580
  H          -0.81646856342761      4.07030744218454      0.53418700293270
  C           1.58822672764288     -1.20399708188781      2.05493626962172
  H           2.10743389153235     -1.33256615258999      3.00157592240177
  H           2.31465971204996     -1.20091668172781      1.23796335472300
  H           0.87938897067980     -2.02757034343886      1.91029429407023
  Cl         -1.21120333466687      0.65042335291161      4.03678630134074
  Cl         -3.07575892047156      2.38104860995968      2.69636786224209
  Cl         -2.83073864651967     -0.36842211700225      1.88615417528324
