21
Coordinates from ORCA-job NEB_reactant E -45.525413825670
  C           0.66478143226228      0.11942750848599      0.12735384927392
  C           0.81734631991569      1.36631015440930     -0.31150211032235
  O           1.11098272980492     -0.26295869646821      1.34819134537516
  H           0.19521626175691     -0.62004602824086     -0.50756135292611
  F           0.27583263992281      1.69039913854542     -1.52480793518379
  C          -1.31593016439224      2.04438040251685      2.14493987477990
  C          -0.07406565893339      2.50475098965013      2.17455117922401
  C           0.52716022380458      3.26389415261963      1.03390989870690
  O           1.41365645433097      2.39553655505721      0.30787606473543
  C          -1.94480812851595      1.17683643990367      3.17274330612068
  H          -1.98355810298425      2.28668179534577      1.32821988203533
  H           0.60338298693078      2.24510515970559      2.97371985028989
  H           1.16516441729969      4.07599520524856      1.38547022001251
  H          -0.24491362941413      3.65644638807244      0.36223172080346
  C           0.93903195144249     -1.63063984204656      1.65233743543180
  H           1.31346815733989     -1.76208238394266      2.66529818122445
  H           1.50956260571989     -2.26480981999451      0.96711143105623
  H          -0.11700659345471     -1.91434845152997      1.61539852619224
  Cl         -3.36081766817336      2.01268561515386      3.88275467329602
  Cl         -2.53254513189829     -0.31556398387841      2.38029338930994
  Cl         -0.85774110276459      0.71099970138679      4.48237057056439
