14
Coordinates from ORCA-job NEB E -31.191272072810
  C          -0.00408853897224     -1.63046110565911      1.37135546316317
  C          -0.29337026538925     -0.24533362013081      1.49355086721679
  Cl          0.94056441368080     -1.39741930454415      2.96225059312633
  H          -0.82719300999511     -2.29962834457306      1.61298254849845
  F          -1.07110665149669      0.33938811737303      2.43404064262911
  C          -0.99392272497247      0.92164714780675     -1.72667487703709
  C           0.25985547928843      0.51919167830966     -1.63815233548800
  C           1.00420114793583      0.32668378995550     -0.35755643392292
  O           0.22728179926279      0.69818564315226      0.78008619439261
  F          -1.59465692745545      1.06251528151980     -2.91389479075760
  H          -1.64971711240549      1.17631627203127     -0.90746505551402
  H           0.82256855075716      0.29824920492433     -2.53222236970275
  H           1.89481097562559      0.96283393933744     -0.34087028916295
  H           1.28477286413611     -0.73216869950291     -0.23743015744111
