16
Coordinates from ORCA-job NEB E -22.190791894950
  C           0.66180240605355     -1.24007570535771      0.24246803641511
  C          -0.67591245756190     -0.88189615555019      0.29376003898704
  H           1.23482318799959     -1.16957296578260      1.15046171604621
  H           0.95067268227330     -2.04549008935424     -0.41681872601142
  N          -1.54368678622255     -1.22976023336114     -0.73522651629227
  C           1.33762500914741      0.47625674158170     -0.55651607581495
  C           0.87082428594220      1.42589494792325      0.32972995404233
  C          -0.55483041320755      1.51607453913095      0.49140978403556
  O          -1.05496842786924      0.11979012331518      1.05303397104229
  H           2.40151429861729      0.29552664754511     -0.61193780132852
  H           0.82176310764328      0.35193580272126     -1.49883311588548
  H           1.48435938369726      1.69428473210620      1.17784855103551
  H          -1.11705235320301      1.60504204905768     -0.43792741359561
  H          -0.90969466167653      2.20682223144068      1.24835816203071
  H          -2.50967765285696     -0.99651611616487     -0.56558667782710
  H          -1.39756160877613     -2.12831654925127     -1.16422388687941
