19
Coordinates from ORCA-job P E -25.863562520560
  C          -1.38890946925791      0.43037811108750     -2.36339696698320
  C          -0.14629352233358     -1.64102129372153     -1.09348433671770
  C          -1.51559709596440     -1.87411164941706     -1.64264916458201
  C          -2.12237472888028     -0.88143845926668     -2.27270594101606
  C          -0.86851263976690      0.81607569955062     -0.96228241202855
  C          -0.08436351819277     -0.32183848514423     -0.27898806393051
  H          -1.97552253077528     -2.84104469342935     -1.51398731569856
  H          -3.11074232726670     -0.95638390820744     -2.69670478170478
  C          -2.23704937602968      1.47555361927992     -2.87991943127010
  H           0.17773981609118     -2.47381610726308     -0.46788286650457
  H          -0.53427708029408      0.32298942392112     -3.04723398159709
  H           0.56173784923911     -1.55575527297057     -1.92753291535109
  H          -1.72599773918035      1.09094529656402     -0.34703308463915
  H          -0.53088294690116     -0.51344119346034      0.70270650907522
  H          -0.21953450225326      1.68995524531561     -1.03409301574559
  N           1.27438542478403      0.12651802513204     -0.02857280449963
  N          -2.92531990651073      2.29668569159580     -3.27865712527116
  H           1.76925651594621      0.27114030289617     -0.90324746700666
  H           1.78804777754657     -0.56275035246252      0.50873516547119
