19
Coordinates from ORCA-job R E -25.785160737170
  C          -2.04741207702745     -0.08926010103962     -2.40849460374628
  C           0.45234608583458     -1.77301209877752     -2.32498751167330
  C          -0.78692801947944     -2.20511268444972     -2.09574854140367
  C          -1.98512846442912     -1.39610875225650     -2.10293220325351
  C           0.78870851004274      1.52198607571914     -0.70630729376963
  C          -0.23198233478822      1.00605927887694     -0.03090344889906
  H          -0.94408368975588     -3.25294865919921     -1.87344948877654
  H          -2.90294620260266     -1.90548158056810     -1.83458300964962
  C          -3.25355572166874      0.62521029871975     -2.37817246039674
  H           1.28997306946716     -2.44939315503859     -2.29814012987871
  H          -1.17333799568519      0.48412224879093     -2.68591153535750
  H           0.67929917979735     -0.74284970074438     -2.54124612150260
  H           0.70553617136293      2.47051274650848     -1.20181827562349
  H          -1.18187962173441      1.52253268033464      0.01985407533859
  H           1.74566621058209      1.02817591257531     -0.74407290962374
  N          -0.18340247946854     -0.14956136838354      0.72335017295458
  N          -4.23905869669626      1.21388966877486     -2.35396756737092
  H           0.61361425535530     -0.74344823234846      0.54259826835340
  H          -1.04911817910625     -0.65478257749444      0.82241258427876
