24
Coordinates from ORCA-job NEB_reactant E -44.472319282600
  C           1.95159240748178     -0.31739288381552      0.12249360426901
  C           1.39194218489284     -1.52002190556997      0.23578644330231
  C           1.96299001730003      0.51022383091753     -1.11930088281256
  H           2.44254336498705      0.10898487912079      0.98494073326285
  C           1.42719015464669     -2.25004315717957      1.56643194347891
  C           3.48562308119672     -4.14376969093185     -0.96814078470121
  C           2.17967981363541     -4.06576290130722     -1.19067853072870
  C           1.52033191362772     -2.84317425160802     -1.74034503682019
  O           0.71806502388556     -2.15391865311255     -0.76687465818938
  O           4.14274292932870     -5.20169277644276     -0.45640337161105
  H           4.16644927618968     -3.33902035004414     -1.20993268893312
  H           1.52658119705356     -4.88594567740417     -0.92653749889584
  H           0.80073357854277     -3.10648683762543     -2.51931387280927
  H           2.27417683877914     -2.16239870939289     -2.15013884056041
  C           3.39125290197555      0.73429497074018     -1.61809316671044
  H           1.51566176416683      1.47992374727221     -0.88594276917614
  H           1.35768548505265      0.03557107596461     -1.89170344849392
  H           3.98726759833682      1.22742070079637     -0.85402483710419
  H           3.38439465612636      1.35764933726770     -2.50848881535912
  H           3.86675249258082     -0.21306431840352     -1.86268959623020
  Cl          3.10692343368622     -2.73815092416157      1.95304561843094
  Cl          0.86516543731500     -1.18861805571177      2.88186298460352
  Cl          0.41366984467619     -3.69041650220212      1.55624409059963
  H           3.51528460453592     -5.89439094716632     -0.21079661881142
