20
Coordinates from ORCA-job NEB E -32.432220163040
  C           0.10819766643631      0.37703101578237      0.88879166227355
  C          -0.82123569372070     -0.51544409113614      1.38407656052954
  C          -0.35801505353005      1.54184417108337      0.04538614534115
  H           0.96108090318538      0.60740982912821      1.51515543432339
  I          -0.16466180340854     -1.67574842928269      3.12134393326038
  C           0.90665777821227     -0.92771753666159     -0.57435671260028
  C           0.11139957558698     -2.06049347148050     -0.56455905839957
  C          -1.27578005251600     -1.89476197829376     -0.70834379512114
  O          -1.76899768481147     -1.00826828405366      0.73171183977764
  Cl          2.58227556566831     -1.07173741665470     -0.16894959214639
  H           0.72820676144949     -0.16468464156414     -1.31665281129041
  H           0.46898481315171     -2.93415403708937     -0.03571903622763
  H          -1.90647113218237     -2.76711993117116     -0.61742877450552
  H          -1.63459891687137     -1.16248057660807     -1.41987526307043
  C           0.79425881478311      2.40580095389183     -0.45353996984517
  H          -0.99753145297618      2.16149153211351      0.68290330588788
  H          -0.98009025815636      1.19869681861302     -0.78366507059069
  H           1.36593997478325      2.79131242251526      0.38726020932088
  H           0.40706933050995      3.24979956820637     -1.01911684449472
  H           1.47331086440629      1.84922408266185     -1.09442216242244
