20
Coordinates from ORCA-job NEB_reactant E -32.466253195990
  C           2.14711051604585      0.09769941837906     -0.07638526306805
  C           2.02642633624772     -1.20933226254269     -0.24100201346069
  C           1.35260418571684      1.10864326381476     -0.84290807877388
  H           2.85318625530160      0.48277559394586      0.64269919354420
  I           3.25475785733834     -2.52548207194946      0.93825302037017
  C           3.50292046904195     -3.90432546051594     -2.63975063015860
  C           2.30874379428477     -3.65554548658729     -2.12804210679302
  C           1.61873975710369     -2.33343901313690     -2.27697973328671
  O           1.13103154899916     -1.81084841630946     -1.04325054631368
  Cl          4.27331464460137     -5.42968066702788     -2.50928951674547
  H           4.07803927416274     -3.17227299753821     -3.18749669349658
  H           1.76693690008498     -4.41044737614002     -1.57757888083889
  H           0.71632418928608     -2.46092929704716     -2.88451923263638
  H           2.27931944814396     -1.60370153347810     -2.76175752694338
  C           2.27209413878998      2.05652621162081     -1.61140516419137
  H           0.75391791954169      1.68779240796892     -0.13464604414971
  H           0.67078581080005      0.60326539076634     -1.52838487481392
  H           2.94454773268696      2.57167608807193     -0.92938758135563
  H           1.68453405342714      2.79969958499554     -2.14449003683693
  H           2.87176516839511      1.50762662270988     -2.33447829005148
