26
Coordinates from ORCA-job NEB_reactant E -35.670183631070
  C           2.05208453701545     -0.45448581122985     -0.10223406968960
  C           1.42516874299879     -1.60103027888626     -0.36072510042538
  C           2.46413673331620      0.68176359427154     -0.98687375255211
  H           2.33381960176123     -0.28578451616241      0.92671174115137
  C           1.16889268600220     -2.59670080498083      0.74673366706221
  C           3.42647958117690     -2.22757154325052     -2.90631751025856
  C           2.41661128241734     -1.51432222346748     -3.37528542682685
  C           1.05240330074143     -1.42488607322446     -2.75011126581932
  O           0.91442480526216     -2.09869016543098     -1.52131672844958
  C           4.77444199826081     -2.30224641589019     -3.53726012479767
  H           3.30479249206832     -2.79744800428663     -1.99553811032108
  H           2.51649115188623     -0.94234666208905     -4.28900735489583
  H           0.32725736047588     -1.91830914122909     -3.41038767663993
  H           0.75026959759579     -0.37327450686202     -2.65231049684725
  F           3.47780649595961      1.38528852439551     -0.36894345100006
  H           1.65354523619588      1.40890878519316     -1.13671374111640
  H           2.86646758957374      0.36085910278140     -1.95288226563490
  C           2.23965099366174     -3.68781094994251      0.75657728096960
  H           0.19329053528953     -3.05400191203446      0.57618602329679
  H           1.15512225358370     -2.08545519019327      1.70836069586135
  H           2.23256100515648     -4.22902494380214     -0.18632404183958
  H           2.04990651948204     -4.39466340959169      1.56063579957559
  H           3.22437343711727     -3.24985605941856      0.90383118681056
  H           5.53026494413220     -1.93026214696993     -2.84593363016250
  H           4.81366188747587     -1.71516427240479     -4.45155501268413
  H           5.02287523139317     -3.33708497529452     -3.77011663476673
