18
Coordinates from ORCA-job NEB E -40.380447840010
  C           1.44170542974910     -0.66086522419755     -0.66432741689733
  C          -2.13766701867985      1.81870391468636     -0.68978924903519
  C           0.59575162283122     -0.51358809367072     -1.67526387447815
  H           2.48398225652761     -0.47016077662843     -0.89607083327520
  C          -1.27812914834024      2.30563734321631     -1.58587336201806
  C           1.19784539285339     -1.02410297734315      0.75193954735480
  C          -0.19102048283205     -1.30673998107068      1.19330223426102
  C          -0.82788547556950     -0.54526848470328      2.06600780131833
  O          -2.98489903644357      1.58389402774047      0.05170645562464
  I           2.43255717951774     -2.81854580061452      1.15135837126594
  H           1.65428311502477     -0.25636134169365      1.38018420932046
  H          -0.65033081748258     -2.20242080920837      0.79769231739758
  H          -0.37587926455457      0.34029653813762      2.48190321333592
  H          -1.83098405794755     -0.77007749970114      2.38305203177644
  Br          1.18059308541194     -0.01688001435433     -3.40491256154991
  Br          0.95637821063334      2.51243893101927      0.43743011470292
  Br         -1.29872547314892     -0.72106194928810     -1.60628142802625
  N          -0.36757551755028      2.74510219767388     -2.17205757107795
