18
Coordinates from ORCA-job NEB_product E -40.454533936240
  C           1.36628250657829     -0.32438395920468      1.78478950124783
  C           2.06774496495640      1.01191300794519      2.09867033216149
  C           2.11958748855327     -1.04781896309771      0.66746082434873
  H           0.36495614910790     -0.07213857028484      1.40284614012550
  C           2.23589447698120      1.89964730183564      0.96254978324264
  C           1.13403811133031     -1.08534752963949      3.09966569081486
  C           0.08170965294173     -2.15434573563537      2.99435636495156
  C          -1.16337495739869     -1.90206205132209      2.63341958299839
  O           2.39689041829164      1.32933808099842      3.20703057406214
  I           2.97237443070742     -1.84598066040986      3.96353857143300
  H           0.80375980442614     -0.33482418798905      3.82526732923158
  H           0.37368350823103     -3.15818741753323      3.26331216302974
  H          -1.51366824224603     -0.91444240535357      2.37634113979968
  H          -1.89565665430403     -2.68748715625232      2.58580002719943
  Br          1.44234712762387     -0.45683922438571     -1.08541851330493
  Br          4.04475011473556     -0.63827961385215      0.71983663231855
  Br          1.92137140427919     -2.98013511904284      0.68427440300696
  N           2.34900969520480      2.65607420322366      0.11205945333285
