20
Coordinates from ORCA-job NEB E -45.295374790870
  C           1.08689886049970      0.40988197072824      0.40053110077526
  C           0.50448308331912      0.66211821343615      1.64408933803787
  C           1.03536581341257      1.52872481149747     -0.61502187566349
  H           2.06731485904419     -0.05639860430026      0.38465585506666
  I           1.25981302856681     -0.50517075594344      3.29147529917613
  C          -0.18295042775051     -0.94762615810554     -0.27120032182655
  C          -1.41095277911696     -0.31926508038227     -0.08033517515079
  C          -1.79824450908249      0.04274920740541      1.24469840982459
  O          -0.68352235829539      1.10123915089337      1.75055996252010
  C           0.23608455313496     -1.34576525666474     -1.66721159398299
  H           0.11292124645502     -1.69564216118258      0.46145070490364
  H          -1.86249467831550      0.21088841486137     -0.90579765393622
  H          -1.69881598374746     -0.72763556184754      2.00804213856046
  H          -2.71487450351100      0.61137817025312      1.34167850309871
  F           1.78730562916599      2.56296700943880     -0.20164646974573
  F           1.54999368016599      1.15233645240252     -1.79756624613864
  F          -0.17692483689742      2.02097596214326     -0.86813969988646
  F          -0.24096504464946     -2.61238274757143     -1.90792156891286
  H           1.32305266455884     -1.40044011114257     -1.77995372750681
  H          -0.19348829695701     -0.69293292591935     -2.43238697921288
