20
Coordinates from ORCA-job NEB_reactant E -45.322862098420
  C           1.68738443469582      0.04474153488669      0.01097027940908
  C           0.96673148003419     -1.06633932048978      0.18781738534835
  C           2.06424032206951      0.49295214269144     -1.36247626981879
  H           2.01890530731237      0.66394859113603      0.82307462475920
  I           0.50769929936189     -1.63717932819145      2.18361964207061
  C           0.03929401005583     -4.75502607817293     -2.48681970521015
  C          -0.38706328931568     -3.59751399129379     -2.01192293778801
  C          -0.03678919833424     -3.07619004146502     -0.65556398555745
  O           0.51765178591834     -1.77728157382441     -0.82154404877605
  C          -0.31920978540747     -5.29736259397634     -3.83147169688467
  H           0.68273203170917     -5.40396221551747     -1.90860120217852
  H          -1.01892946832233     -2.95375926365764     -2.60581269192463
  H           0.68632855101060     -3.73458450959361     -0.15852498340235
  H          -0.94437226064671     -3.00657867332871     -0.03772760632942
  F           2.74460790399012     -0.44168118170358     -2.05212937468395
  F           1.00428856789401      0.81461086546632     -2.12603527553878
  F           2.84628200380534      1.57940110868057     -1.32190551981601
  F          -1.20154323371836     -4.48914912721761     -4.49605940035044
  H          -0.79564592781852     -6.28171132446557     -3.74011933938613
  H           0.57320746570613     -5.38533501996314     -4.46406789394188
