20
Coordinates from ORCA-job NEB_product E -45.338324490970
  C           1.63090207541869     -1.93446065394770     -1.21090329598065
  C           1.12517458111900     -1.35716835291883      0.08744748974458
  C           1.71059828850426     -0.81597354623559     -2.25594262754554
  H           2.65589090494367     -2.30200596943430     -1.08732372579555
  I           1.62901103322136     -2.60479389966491      1.77329753450459
  C           0.70173392264625     -3.11615438190195     -1.59792804113842
  C          -0.75328682190424     -2.76769711191677     -1.41767619329413
  C          -1.53501004020865     -3.37166149023901     -0.54330861371035
  O           0.50064832814942     -0.37221037849494      0.24486398181558
  C           0.96642568063131     -3.60805552988703     -3.02722155948991
  H           0.94346995167806     -3.94900631641536     -0.92650152183585
  H          -1.13999950032783     -1.99378593174011     -2.06473208231934
  H          -1.17374607574820     -4.15400298921128      0.10460850325790
  H          -2.57416072378268     -3.11211157872865     -0.44549201179749
  F           2.36454149839674      0.24553866659949     -1.77020377306737
  F           2.40557977449399     -1.21509412749547     -3.33454154254726
  F           0.53198672911147     -0.38652433205723     -2.70014103152390
  F           0.38296388583477     -4.83625958943434     -3.17724077087268
  H           2.03591889903235     -3.74073695809799     -3.22199216520611
  H           0.52135760879027     -2.95113552877804     -3.78076855319809
