18
Coordinates from ORCA-job NEB_product E -34.913534112360
  C           1.44830616058337      1.39388261180911      0.63825331237119
  C           2.58750810550128      1.48520626956551     -0.36198488832816
  C           1.73421032465408      0.27616443601699      1.64650354999044
  H           0.55475530623114      1.08085842917991      0.08097988118100
  H           2.80820873042922      2.51103421177750     -0.70537791494075
  C           1.14158566967250      2.73457016615700      1.34121894378109
  C           0.32130371877732      3.64503884080345      0.46077934069907
  C          -0.82802454489203      4.17258764128024      0.83409167842266
  O           3.19693649912761      0.53954724621624     -0.76391652782184
  C           2.36533018066982      3.42657220542286      1.69761805601766
  H           0.59050465553691      2.53139209279141      2.26792613989568
  H           0.74322748480141      3.85577090564460     -0.51232723532463
  H          -1.38804939181765      4.82171140912183      0.18389387846288
  H          -1.25778097911479      3.97965238221632      1.80343093319424
  F           2.61064546086141      0.67956246099006      2.59017593028810
  F           0.59873259404091     -0.05805066667545      2.30805417468179
  H           2.13418316054406     -0.62823143668713      1.16436764214142
  N           3.30811686439344      4.01373079436955      1.96261310528815
