18
Coordinates from ORCA-job NEB_reactant E -34.911153969080
  C           1.69082970150112      0.22583793170962      0.00779312262043
  C           1.32025713177944      1.12280175283875     -0.91222818680297
  C           1.40839286195844      0.15740031850785      1.47366367342723
  H           2.28378117613299     -0.59873277234040     -0.35143329043632
  H           1.64383927334690      0.93897290535759     -1.93197289364408
  C           0.98699188741697      4.15183770568561      2.19247894304259
  C           1.09612052132588      3.71824108315890      0.93880444811128
  C           0.08582315135907      2.83877908352254      0.26999507821592
  O           0.59715691620807      2.24146178110857     -0.91238749349630
  C           1.93725264403603      5.01174121927650      2.77410416628011
  H           0.16263980538787      3.86207396620780      2.83055955430362
  H           1.93593085178300      4.01310917701208      0.32391643959806
  H          -0.74516362969898      3.46186097123224     -0.08702653826581
  H          -0.32850534880939      2.10050583726063      0.95960615557066
  F           1.84536665712406      1.25003975957984      2.16127579760347
  F           0.07081448761873      0.07692631036936      1.75211670924203
  H           1.88024091253087     -0.72205183169340      1.93429789216826
  N           2.70043099899894      5.71959480120592      3.25503642246183
