31
Coordinates from ORCA-job P E -45.882654755790
  C          -1.40786319951168      0.25035575872732     -2.20315373058277
  C          -0.23564371853068     -1.75893909478040     -0.72618984995824
  C          -1.69689838758937     -1.85178707088310     -1.03260359309604
  C          -2.26001162231234     -0.90243072458718     -1.76197185333989
  C          -0.68254254905319      0.76193467579552     -0.94398732633105
  C           0.13257690735524     -0.34091888840719     -0.23904639578406
  H          -2.24384340686796     -2.70437082352207     -0.66278086730679
  H          -3.30727373150676     -0.92913120899559     -2.01185101689657
  C          -2.16940095716354      1.35007730613666     -2.97917726166369
  H           0.05613590569033     -2.49451100438067      0.02188349244950
  H          -0.63921918971066     -0.13943932798531     -2.88264202186501
  H           0.32646550418120     -1.96862039933543     -1.64137463591189
  H          -1.42959678152615      1.13776983921446     -0.24576232135941
  H          -0.06511417869332     -0.29197937222549      0.83629784685359
  H          -0.02328223156974      1.58609297656776     -1.20638074828467
  C           1.63089956656372     -0.09820982930183     -0.39771054820612
  C          -3.29774693017797      1.96557575164683     -2.14857254049791
  C          -1.20190313853214      2.46117860064676     -3.40437594466881
  C          -2.75529470083703      0.72747933165715     -4.25251969772151
  H          -2.90275619425051      2.50084343548433     -1.28889226683970
  H          -3.98795641242376      1.20560687845351     -1.79252115750862
  H          -3.85728454358587      2.67406674743830     -2.75540833181042
  H          -0.87907028502466      3.05637801843163     -2.55444790782177
  H          -1.69281063628942      3.12984658580563     -4.10799204130860
  H          -0.32307322661714      2.04280209659052     -3.89009919985946
  H          -3.46418933533236     -0.06259251062576     -4.02224689186948
  H          -1.96342345288957      0.30495633901281     -4.86723256162498
  H          -3.27322464743218      1.48456097901320     -4.83704695917633
  Cl          2.10166642159669      1.44731488568893      0.36180062380754
  Cl          2.57917769337787     -1.38120705593022      0.39541263585033
  Cl          2.11405145866296     -0.03466289535108     -2.10365692766713
