31
Coordinates from ORCA-job R E -45.790417744480
  C          -1.72091358627700     -0.15221135017843     -2.69678538100972
  C          -0.60043750255294     -2.74157669956914     -1.58979338095628
  C          -1.76286583654093     -2.17919428344497     -1.27386846778941
  C          -2.24847781768499     -0.88217490707881     -1.71637957465061
  C          -0.59034379500929      1.14010070040300      0.66671330262777
  C           0.33795674676178      0.36197884677318      0.14285878713016
  H          -2.43228090919936     -2.71037501906958     -0.60724358665804
  H          -3.12392496785725     -0.52767319811488     -1.19065825651688
  C          -2.19545110563083      1.18285870747453     -3.19904085189980
  H          -0.32469425591984     -3.71172018506194     -1.21332278520883
  H          -0.86266685931807     -0.53315494007502     -3.23408163668238
  H           0.11437850194805     -2.26062375896580     -2.23526985680322
  H          -1.52349095640542      0.72473043338337      1.00382463576671
  H           0.18733573032155     -0.70363181354445      0.03500627166237
  H          -0.46147960264131      2.20360133648895      0.77637359842377
  C           1.66506842923390      0.81591970297372     -0.35119673731916
  C          -3.34823096541133      1.75793692211614     -2.37508854519175
  C          -1.01484490622037      2.16152853749318     -3.15650791825577
  C          -2.64974154548801      1.00280826104411     -4.65478425027974
  H          -3.04143019872728      1.89360959202389     -1.34057259335580
  H          -4.21668844791499      1.10521760497679     -2.40843288707846
  H          -3.63647943781762      2.72744852031011     -2.77571336744773
  H          -0.70861890183444      2.33754596821976     -2.12803907577413
  H          -1.29804003515836      3.11390389072811     -3.59921196764130
  H          -0.16458453320544      1.76469846016057     -3.70567273545199
  H          -3.47227306129787      0.29274389621922     -4.70897703886366
  H          -1.83275979110391      0.62969741017849     -5.26815111383331
  H          -2.98361264939704      1.95242706888501     -5.06726127662303
  Cl          1.86604564614917      2.57473833165852     -0.35989978389744
  Cl          2.94459641289990      0.11451170361557      0.69295408181071
  Cl          1.92503020129951      0.22081025997678     -2.00760760823305
