31
Coordinates from ORCA-job TS E -45.776708098000
  C          -0.32921533187009     -0.20539956841972     -0.48964036972026
  C           1.04701399767396     -2.55082369715997      0.50253371622635
  C          -0.30088064946132     -2.46036331182094      0.43767908302606
  C          -0.97770457426632     -1.33264168687081     -0.07833394271036
  C           0.50693270347801      0.27856227772430      1.53175620056623
  C           1.39237041464498     -0.67307256012523      1.93579843799822
  H          -0.90260286281387     -3.20519986644870      0.94177757313331
  H          -2.05343529600443     -1.31933678254644      0.03089312587933
  C          -1.04995583664173      0.99065467026284     -1.07474129821879
  H           1.51224223103275     -3.38341758047706      1.00270722371551
  H           0.69865936532021     -0.28839186491932     -0.80718135029770
  H           1.68565375061913     -1.98394719559822     -0.14804271104655
  H          -0.47261055632592      0.30121119877319      1.97020030647799
  H           1.13115489007301     -1.39769759411281      2.68856293448730
  H           0.86236505972111      1.18087878909911      1.07140532858779
  C           2.85244765474776     -0.48548169638606      1.73938281747526
  C          -2.19775910222303      1.48756697706851     -0.19230124489477
  C          -0.07317295186488      2.14385299238860     -1.32434819905419
  C          -1.61686485140815      0.53720348774550     -2.43189252969123
  H          -1.82636018324018      1.82717216747097      0.77102012161810
  H          -2.93480571679293      0.70732066172952     -0.02417309080350
  H          -2.69814669283868      2.32324706757660     -0.67669180597367
  H           0.26935603557091      2.58272016839347     -0.39051357419994
  H          -0.56084493784628      2.92842907672736     -1.89885217656624
  H           0.79450799441414      1.80168372541480     -1.88389585088680
  H          -2.32963886049394     -0.27255974614807     -2.29930813088125
  H          -0.81647001634869      0.18538887056110     -3.07868232709911
  H          -2.12053967895477      1.36559952531177     -2.92517659929121
  Cl          3.26817397556048      0.14886203465578      0.13494119082063
  Cl          3.45479084860522      0.73442201462558      2.94408659558745
  Cl          3.78533917793356     -1.96644255449564      2.02103054573604
