24
Coordinates from ORCA-job NEB E -45.003128113890
  C           0.22269466100019      0.80941336973617     -0.09411369968095
  C          -1.00918968972445      0.77162294634872      0.58875200027627
  C           0.21948654720660      1.36092347564553     -1.48968347984634
  H           1.09970896731691      1.16915703704691      0.43170348000484
  O          -1.08777792746935      0.84409399471975      1.94491314235986
  C           0.49992355154174     -1.17983346980011     -0.28530959381930
  C          -0.69485826047416     -1.58518491528857     -0.87842048872392
  C          -1.90264208450947     -1.39890865872770     -0.17710570598109
  O          -2.04293413715634      0.30093740294829      0.01696089060862
  C           1.80174782381216     -1.36597142583183     -1.00986791877970
  H           0.58051047016770     -1.32885505827909      0.78842457876282
  H          -0.73579406499396     -1.65750308805126     -1.95477508768481
  H          -1.92517906781913     -1.65466248857676      0.87682244267546
  H          -2.82481790608630     -1.61429630945125     -0.69727316677124
  F           1.44877380507930      1.33475569914784     -2.03810673387540
  F          -0.59468419006099      0.77469745727774     -2.36343113069239
  F          -0.12758297476571      2.67010315041316     -1.47728529751556
  C          -0.02648010879432      1.40221679244395      2.68661970272082
  H           0.28625370244346      2.36489789239800      2.27332855818325
  H           0.83154849535032      0.72493101395060      2.73218645326394
  H          -0.41793933398298      1.55060270218256      3.69162003686467
  H           2.57685302456381     -0.70865505312771     -0.62415953215707
  H           1.68938987008554     -1.19026132916049     -2.07582092399559
  H           2.13298882726943     -2.39422113796446     -0.86597852619721
