24
Coordinates from ORCA-job NEB_product E -45.063694158900
  C           3.28859235738507     -1.46665745955939      0.13012356951594
  C           2.18527202149045     -1.07233092814507      1.11123777455090
  C           3.10366131467267     -0.70985879108980     -1.18002948348431
  H           4.25487014068855     -1.14738098414115      0.53324947779845
  O           2.60113197200743     -1.26758328953249      2.36109748970345
  C           3.27059737500107     -3.01615762612009      0.01473308858550
  C           1.86400263206624     -3.52853562845550     -0.13334413646087
  C           1.25899166246892     -4.26499411058167      0.77860601258710
  O           1.09481082809731     -0.68171822234726      0.80985160437092
  C           4.14913914837161     -3.52598524290967     -1.12716064573672
  H           3.67459095261990     -3.38555552471207      0.96385797472784
  H           1.35821733777003     -3.26411208962511     -1.05007937531241
  H           1.74387303506126     -4.54068832188431      1.70203700372112
  H           0.25450651700567     -4.62567326863764      0.64177296659006
  F           4.20994340948907     -0.76987287523030     -1.94538169168298
  F           2.09888054347764     -1.13781048657857     -1.94252935447671
  F           2.89884446624020      0.59732167296701     -0.95613326503012
  C           1.64216042823774     -1.00832683345493      3.38190398644109
  H           2.13390239293223     -1.23755424531855      4.32327869992050
  H           0.76339119147697     -1.63938647232140      3.23891230835353
  H           1.33437177628689      0.03808889814178      3.35200349488966
  H           5.15527980956789     -3.11991207537486     -1.05547208173883
  H           3.73241398798155     -3.25638172540057     -2.09404990207197
  H           4.20675469960362     -4.61053436968840     -1.07478551576117
