23
Coordinates from ORCA-job NEB_product E -44.261276906230
  C           2.43442265463245     -0.18506161341433     -1.14443025464283
  C           1.09886374046037     -0.88814166417342     -1.18282441449589
  C           2.29937155027931      1.02309017854333     -0.20194250555234
  H           3.19828626004926     -0.86823989961128     -0.75976444043082
  C           1.20975299034685     -2.43282912016641     -1.00806140783445
  C           2.73088130154768      0.12402944642856     -2.62938676426501
  C           2.00264728460574      1.30375652881883     -3.16037888670537
  C           1.10317722664526      1.21665291771570     -4.12395471183647
  O           0.03327277086313     -0.37488208983277     -1.35532541177173
  I           4.87755012226356      0.36157855915307     -2.97287176741608
  H           2.49226417993580     -0.76009973970738     -3.22461548320266
  H           2.25309023009653      2.26004152341480     -2.72453642448972
  H           0.84389364092766      0.27535008971231     -4.58061642839789
  H           0.58341167375069      2.08466755471905     -4.48921365289249
  C           3.58570681889123      1.81075033532424      0.00197594844012
  H           1.97379837310287      0.63159991587710      0.76581191417711
  H           1.50571555217426      1.67387063345866     -0.57218144405305
  H           4.40289466673153      1.15172682584145      0.28628500904072
  H           3.44012672550125      2.53472196088719      0.80003266001076
  H           3.87518474771374      2.35497615224706     -0.89221689430220
  F           0.03688109472454     -3.04947765940308     -1.09544295902750
  F           2.01718054164755     -2.96013376621393     -1.94399876954899
  F           1.74652585310871     -2.73674706961874      0.18305708919676
