19
Coordinates from ORCA-job P E -29.547489313280
  C          -1.24331735856012      0.49632060150022     -2.40234402158870
  C          -0.36224894062031     -1.65645350990686     -0.53718199315342
  C          -1.31846293315049     -1.87598280276053     -1.66909695311612
  C          -1.71437184154299     -0.92512276140032     -2.49774013416412
  C          -0.71437765337214      0.79776719683688     -0.99728121852321
  C           0.28191801814897     -0.27337082669546     -0.57374133895545
  H          -1.68014722578560     -2.88826181998553     -1.78072091513547
  H          -2.39202518405962     -1.15009417041750     -3.30905229636418
  C          -2.37123588187287      1.45414751914875     -2.77825629723547
  H          -0.88934462455625     -1.78095843776394      0.41317697240708
  H          -0.42505833446281      0.64479398507006     -3.11924650531862
  H           0.42594176093790     -2.41281750686239     -0.57480413495233
  H          -1.53757007777833      0.80150421961586     -0.28051933335358
  H           0.73293991284191     -0.03027938299864      0.39754929915630
  H          -0.23658909684530      1.77831537341772     -0.98659167478666
  F           1.33817404084386     -0.28901930318505     -1.46975745824184
  F          -1.92026520515698      2.75153689837523     -2.79350577835222
  H          -3.18875275685304      1.41397343296177     -2.05003072383775
  H          -2.75406661815578      1.24367129504972     -3.78232549448428
