19
Coordinates from ORCA-job TS E -29.433830072270
  C          -0.36849388249600      0.33839246553424     -0.97927325613431
  C           1.01741320443845     -1.80122131468680      0.33395064644421
  C          -0.31300914506184     -1.84621319633808      0.07855808109322
  C          -0.99679381755087     -0.80204886417953     -0.58100881296248
  C           0.30034282227092      1.04934334817905      1.05911752336824
  C           1.12014644391065      0.12909242374331      1.61348977874608
  H          -0.91781806739581     -2.60830165759769      0.55100872365988
  H          -2.07846485697421     -0.82918768167093     -0.57713394213240
  C          -1.13338822748049      1.48348340539201     -1.56629205286139
  H           1.47917353961067     -2.55565839773221      0.94998896830180
  H           0.67974059147890      0.33411968458675     -1.23186086562358
  H           1.69518136747715     -1.23463807019511     -0.27831205596942
  H          -0.71431238805424      1.11558839503368      1.40210004683475
  H           0.86940005496817     -0.53134975715532      2.42731152057652
  H           0.71364591804571      1.89659601738808      0.54278562544333
  F           2.45820337405728      0.24057827585091      1.44976514546073
  F          -0.36561769870031      2.62311042895218     -1.59574561823001
  H          -2.03355974905004      1.72192644254898     -0.98958178278007
  H          -1.41178948349409      1.27638805234645     -2.60886767323509
