17
Coordinates from ORCA-job NEB E -41.727291926470
  C           0.65639867480086      0.57400254927429      0.62053053406003
  C          -0.74212371799623      0.25471780633016      0.58812785604295
  Br          1.00421199722447      2.41365677574107     -0.15687392853983
  H           1.05911648908126      0.62897231390909      1.63013131287435
  C          -1.48347572832175     -0.11452421520565      1.82815925395753
  C           1.43090577107776     -0.46323455059067     -0.26793981807279
  C           0.76673275040213     -0.57818334951935     -1.54213723985308
  C          -0.62394315948990     -0.11909897512251     -1.71304803050170
  O          -1.40217793903500      0.04566994707215     -0.57011681275030
  Br          3.38472631942951      0.06499519191122     -0.47888932154248
  H           1.52061892159834     -1.37262791224338      0.32649990315860
  H           1.35522511945679     -0.59045815705944     -2.44506890289140
  H          -1.19683423128305     -0.81296766650135     -2.33942360527291
  H          -0.59295167760035      0.83713119804966     -2.26471170509430
  F          -2.79811174264094     -0.17722629907781      1.65064878242881
  F          -1.09757549075731     -1.33179958025299      2.30106556791719
  F          -1.24074235594657      0.74097492328552      2.83304615407936
