17
Coordinates from ORCA-job NEB_product E -41.767762003260
  C           3.14528350521957     -1.43336000636627      0.06666148981321
  C           1.64449493148656     -1.34399921706514      0.15950541185453
  Br          3.83509836643801      0.33715523682458     -0.37671294093229
  H           3.59219353472298     -1.71299226903288      1.02448426497428
  C           1.06146741820917     -2.25749500823384      1.28063858228731
  C           3.50792423572084     -2.46018591354671     -1.01628397859885
  C           2.97775329631300     -2.10934816073805     -2.36265364367355
  C           2.17715019161487     -2.90440181522369     -3.04803160682645
  O           0.93006553833143     -0.69830971925027     -0.54139770735416
  Br          5.47927965277214     -2.59420428201211     -1.09167408585367
  H           3.16719419591277     -3.45040546359663     -0.70059071359299
  H           3.30062238307308     -1.15695763815304     -2.75955202219799
  H           1.85626207478267     -3.86132404013339     -2.66840774153007
  H           1.81017240482653     -2.62486654886626     -4.01924890398198
  F          -0.26010095141442     -2.21113307976819      1.33674638892283
  F           1.42072702916780     -3.53670713855995      1.06954564562365
  F           1.54651219282300     -1.91216493627815      2.47937156106621
