17
Coordinates from ORCA-job NEB E -36.975584635440
  C           1.07115541240395      0.00258210421246      0.40407099072677
  C           0.22679466021160     -0.68703018294864      1.27390243338652
  C           1.00582513156923      1.51681495541357      0.50421300736846
  H           2.09117138900635     -0.35157753521801      0.28925591772735
  I           0.74850363331405     -2.72738731731487      1.71776774246136
  C           0.15543160426961     -0.44594585825782     -1.26359552120296
  C          -1.15205109550959     -0.03686786788467     -1.02045330153161
  C          -1.85425477639042     -0.67205375553246      0.04644357017553
  O          -1.00058695494139     -0.36780308063808      1.39285636258722
  I           1.20451352501764      0.42588786665569     -2.89005465503595
  H           0.38539828862573     -1.50388725031797     -1.21854720868990
  H          -1.47288405059994      0.94396006403262     -1.33864248039410
  H          -1.84033434004963     -1.76089271117187      0.05499751782602
  H          -2.83052960844375     -0.26895942811966      0.28741801915962
  F           1.27833766907537      1.89190381679394      1.77859767771598
  F           1.95494484538797      2.09496796046484     -0.25627133648092
  H           0.02856466705322      1.94628821983093      0.23804126420062
