17
Coordinates from ORCA-job NEB_reactant E -37.003203855450
  C           1.71168677308556      0.06438845237979      0.03549601224582
  C           1.12969088988640     -0.86296126401765     -0.72673087997921
  C           2.12246773214918      1.38625970183776     -0.54025794086906
  H           1.92430514620550     -0.11389399477989      1.07295877824462
  I           0.53867729537372     -2.69558609376103      0.19460598649459
  C          -0.12762450644180     -1.52067630011684     -5.19665338384094
  C          -0.14450033947732     -0.79353036364425     -4.09695493455200
  C          -0.06579885750298     -1.39271470465594     -2.72746367607374
  O           0.96510153309771     -0.71753679377430     -2.02666944311543
  I          -0.27698095301872     -0.69502204750242     -7.11718307736087
  H          -0.06001726618889     -2.59605602596420     -5.19800480086179
  H          -0.20079209742918      0.28465673581624     -4.11970533416382
  H           0.15350183455065     -2.46742608099847     -2.78007350580138
  H          -1.02525634807411     -1.24929377886752     -2.20937083415332
  F           3.14631663768722      1.25656014464058     -1.42460941070789
  F           1.10873352548763      1.96400159260979     -1.23667308558869
  H           2.44238900060941      2.09813082079835      0.23488953008313
