17
Coordinates from ORCA-job NEB_product E -37.016402572020
  C           1.66679547548989     -0.50355868513044     -1.72719369503033
  C           0.91678803566142     -1.11592450635861     -0.56863699770561
  C           1.54615742221634      1.02828929377975     -1.62572948045858
  H           2.73219720411431     -0.74215933063414     -1.67258800096442
  I           2.16308900755448     -2.38392763784250      0.67370624940381
  C           1.06279294590809     -1.12721537312320     -3.00267235500345
  C          -0.25431940891636     -0.56701589165300     -3.40158032062660
  C          -1.35949491875149     -1.28990820049029     -3.42333298756876
  O          -0.23070720061971     -1.00512350967793     -0.32561127120718
  I           2.47825013619889     -0.95422075463255     -4.66168396941585
  H           0.98500711438420     -2.20598512137996     -2.84381361775114
  H          -0.26594954598172      0.47403073252606     -3.69006748680125
  H          -1.36847406029796     -2.33205021916301     -3.14679718663065
  H          -2.30341012512357     -0.86231288302417     -3.71016436756430
  F           2.00629083136181      1.62614116075815     -2.74227659677443
  F           0.27350343702476      1.44076067726789     -1.46877011575417
  H           2.12978364977663      1.41358024877795     -0.77298780014710
