19
Coordinates from ORCA-job NEB E -30.022989675700
  C           0.55670359034317     -0.30199977193670      0.55119677555015
  C          -0.87883670260158     -0.32531185911842      0.26879620217198
  H           0.74748978399218      0.26461033861634      1.46985541469781
  H           1.00488099933099     -1.28679563604792      0.63710864112266
  O          -1.64934823285506     -1.41136818022587      0.09140033097316
  C           1.21619374620138      0.52014227811261     -0.62010344553014
  C           0.23396599537493      1.56319640019499     -0.97090879386189
  C          -0.83053198706452      1.91977890571805      0.02433077127242
  O          -1.60406005358392      0.78934734538035      0.38866783334865
  O           2.52995292806627      0.98030118780906     -0.31544355822806
  H           1.38737656514091     -0.19051276309159     -1.43594521974211
  H           0.68133652826797      2.44622281586144     -1.41946003273375
  H          -1.54183924382075      2.62949320422938     -0.40164732893368
  H          -0.41572892600957      2.37272123262758      0.94587170178040
  C          -1.06995334367133     -2.69610397328730      0.15801787547952
  H          -1.88510030060023     -3.38965242571433     -0.04051349594134
  H          -0.65553916116991     -2.89795856859953      1.15036617546494
  H          -0.29249979818453     -2.82560826572368     -0.59918849674024
  H           2.46553761284363      1.83949773519556      0.11759864984954
