19
Coordinates from ORCA-job NEB_product E -30.101083755910
  C           3.11491370555010     -0.39014298658625     -1.43171747621532
  C           1.61037484865812     -0.55517261153797     -1.39720373719158
  H           3.42227411096379      0.11075588217272     -0.51311021145847
  H           3.64596211087117     -1.33736597164509     -1.51116640375007
  O           1.05163114116441     -1.57308981325205     -2.07170102760494
  C           3.51798086217602      0.49951557905660     -2.62587186159079
  C           3.07352166074513      1.91384084756896     -2.38814766390880
  C           2.11600234055204      2.51193980852557     -3.06933555083036
  O           0.88995497092200      0.21009607423598     -0.81723282875183
  O           4.92566773295873      0.39469235048919     -2.74486511338643
  H           3.04439430060755      0.12123560734553     -3.54891452832221
  H           3.60303860071058      2.42389503025127     -1.59522809708239
  H           1.57719163865231      2.00777278092937     -3.85506346755345
  H           1.81609461234372      3.52318891141906     -2.85802522737348
  C           1.81157400486866     -2.56259010394868     -2.73810933217721
  H           1.08120843884415     -3.19294531493571     -3.24352667673564
  H           2.37835797395491     -3.17140789204548     -2.02894227545372
  H           2.48989475440468     -2.13212018486963     -3.47704307040644
  H           5.24276219105190      1.09590200682661     -3.32389545020689
