19
Coordinates from ORCA-job NEB_reactant E -30.088201974470
  C           2.72226363078516     -0.10460474977135     -0.41767808098913
  C           2.11295344189420     -0.64787309334433     -1.46640716169079
  H           3.03904372339871      0.91714402269232     -0.39426381209708
  H           2.93022395884493     -0.71725717586674      0.43610518226444
  O           1.77620330009599     -1.96222074294311     -1.44241622579458
  C           4.37625902667999      0.86175305655454     -3.27713778474324
  C           3.41662496057833      1.72680447262984     -2.98505015445045
  C           1.98107538923745      1.35186055107683     -2.75004409886034
  O           1.74821089757373     -0.03126733023770     -2.62671996224708
  O           5.67300564529004      1.16421389185905     -3.50867088630152
  H           4.20043880481291     -0.20060690814593     -3.35181257465352
  H           3.62417410283365      2.78690591440860     -2.91910085953238
  H           1.37507652225717      1.65464401827518     -3.61352397521950
  H           1.59803862786746      1.88004266802902     -1.86533444155919
  C           1.09391976104671     -2.48617479040888     -2.56236923319590
  H           0.91940443148821     -3.53489034322100     -2.32950900348532
  H           1.69552234875943     -2.40282298508437     -3.47126765083831
  H           0.13960383756457     -1.97753273344757     -2.72201086983067
  H           5.80895758899137      2.11708225694560     -3.42828840677544
