15
Coordinates from ORCA-job NEB_reactant E -31.745652105540
  C           1.08490438394031     -0.02299126874968      0.58920692834771
  C           1.49705971296468      1.23973465590634      0.54549863066720
  F           0.02110913847709     -0.43515573006644      1.31086063394026
  H           1.57451644916852     -0.81355655500332      0.04840857740630
  F           2.55913104865068      1.50013106121787     -0.23017163140736
  C          -0.12373743002872      0.82590433294831      4.12534533344432
  C           0.59245192155608      1.65706946817786      3.37248639108432
  C           0.07898194380959      2.30183587125586      2.12309423351612
  O           1.07295860456268      2.37524254974383      1.10939955881205
  C           0.38360432163488      0.26100439295376      5.31234860577391
  H          -1.13415450797832      0.54084098888358      3.86378292568199
  H           1.60750835490688      1.91675476545372      3.64343038439888
  H          -0.16136958640021      3.35187565711742      2.32593758820705
  H          -0.82065947427597      1.79781743234828      1.75436981839961
  N           0.78259511901184     -0.18960762218739      6.28770202172765
