15
Coordinates from ORCA-job NEB_product E -31.762001845650
  C           1.85723536494070      0.54337379651165      2.18077716557100
  C           1.84668161846330      1.44445635973894      0.96412044421440
  F           3.05958350681912      0.68092856680150      2.81855740681496
  H           1.75753111255500     -0.50824238344342      1.88052198689754
  F           1.00816284876124      0.93231303867110      0.02227582354414
  C           0.71528713594371      0.97044757648613      3.13782231312097
  C          -0.61458153464032      1.02424208304792      2.42683435679433
  C          -1.34325573233056      2.11937162690096      2.33766969300940
  O           2.40889538984722      2.45670350485464      0.77368358170633
  C           0.62605628051479      0.01829001590815      4.22771163791033
  H           0.97262157234490      1.95256898920923      3.55331663332240
  H          -0.94505968963172      0.08964815293173      1.99541334708969
  H          -1.02753791408541      3.05618612963505      2.76730710188249
  H          -2.28996185596488      2.12238821884436      1.82712706539754
  N           0.52634189646290     -0.74147567609794      5.07336144272447
