31
Coordinates from ORCA-job P E -40.867035114460
  C          -1.47342644520207      0.28479693965868     -2.50719128421125
  C          -0.25641982944206     -1.78764045617982     -1.20862430390829
  C          -1.62649124868219     -2.00438750256143     -1.76296622809511
  C          -2.21860927487910     -1.01261587680404     -2.40879111933738
  C          -0.95144638834049      0.66672086987797     -1.10413044578073
  C          -0.16013833664758     -0.46614719614136     -0.41523373108036
  H          -2.09066866524849     -2.97077564901286     -1.64138205456894
  H          -3.19366175500255     -1.10748803729435     -2.86438557401560
  C          -2.31387218193597      1.43455487201910     -3.03179511836660
  H           0.02546096015511     -2.62123939634554     -0.56810517433162
  H          -0.61257620466534      0.17244718979445     -3.17589886356509
  H           0.44454481029165     -1.75112728293288     -2.04683712504602
  H          -1.80710145839960      0.93405666197651     -0.47835125380070
  H          -0.63974270699365     -0.65523957124074      0.55198398503805
  H          -0.34168120092331      1.56228856373180     -1.20775772444253
  C           1.30790652879816     -0.07292383110358     -0.09587190763817
  O          -1.92709541464998      2.23086581799354     -3.83762962908793
  O          -3.54257114588046      1.53239677270166     -2.49343356980799
  H          -3.71693328959118      0.81078847914716     -1.87233589432517
  C           1.30791881490058      1.08885744300528      0.90618473928789
  C           2.03022844435964     -1.25245067837717      0.56835970840791
  C           2.09340786275135      0.33753381435774     -1.34389338626081
  H           0.77647025602812      0.80926401408832      1.81346125346735
  H           0.83754211596828      1.97835013893766      0.49688694646151
  H           2.32897051954500      1.34736720182144      1.17718246553244
  H           1.45270260838114     -1.63753547055519      1.40611103020581
  H           2.99672433969689     -0.92673314397112      0.94641176119269
  H           2.20557174039825     -2.06051727058433     -0.13619167545358
  H           1.64358509154495      1.19069517724879     -1.84393040360599
  H           2.16037224292806     -0.48132810134475     -2.05582987666599
  H           3.10674921073683      0.61334550808906     -1.06072554619780
