31
Coordinates from ORCA-job R E -40.781125364010
  C          -1.17509493870852     -0.28434534339845     -3.21230424808484
  C          -1.10186548808142     -3.28186078954086     -2.80050892406213
  C          -2.03074270950843     -2.44635722160621     -2.34555612681019
  C          -1.96606150041675     -0.99904114435009     -2.40418188321656
  C          -1.25810062734264      0.59203859354264      0.68610451876783
  C          -0.18905167682500     -0.06859358034879      0.27215810710391
  H          -2.91000782848730     -2.84647402162564     -1.85679328177319
  H          -2.65968690761534     -0.48676996394620     -1.74684593060479
  C          -1.16834691192830      1.19495083156001     -3.27150728853298
  H          -1.21389869787097     -4.34885655861207     -2.71380458039694
  H          -0.55078322240127     -0.76133131972855     -3.95251827780284
  H          -0.19929739456556     -2.93471824978426     -3.27493552982665
  H          -2.22131105234202      0.11177861542185      0.75961805503871
  H          -0.28848608737892     -1.10758396743476     -0.02179907361030
  H          -1.22197068793361      1.61782654412641      1.00980643929782
  C           1.21843802875108      0.45387302432174      0.16932494757717
  O          -0.91528643883418      1.79906714285997     -4.28004774683019
  O          -1.46272369674195      1.84798723472399     -2.13409437413555
  H          -1.50865069532556      1.25906505098291     -1.35753350547330
  C           1.33062169506317      1.92965327260877      0.54945014707292
  C           2.08742950501253     -0.38813101868503      1.11637433568545
  C           1.71421224991924      0.26299109601933     -1.27043953611551
  H           1.02922592942559      2.08854342022102      1.58200642444480
  H           0.71189923979021      2.54419949973001     -0.10016717395620
  H           2.36252447538273      2.25622022955054      0.44323047152782
  H           1.71478063046526     -0.31846764079917      2.13611029704836
  H           3.11498067644649     -0.03216952459197      1.10075625053782
  H           2.08224231645981     -1.43452601683019      0.81692848330910
  H           1.21240295577839      0.95152921212315     -1.94641015931261
  H           1.52990820491812     -0.75254637719377     -1.61458785887457
  H           2.78290065489511      0.45698897068370     -1.32461297799235
