26
Coordinates from ORCA-job NEB E -52.572356277970
  C           0.38313266746970     -0.24151905920991     -0.20799511941722
  C          -0.61327539537326     -0.17647792001853     -1.33689161495606
  C           0.12309098094616     -1.51112263409805      0.61369333230685
  H           1.40215130638642     -0.25662110421352     -0.60741156288675
  C          -0.00060762312837      0.31157321689647     -2.68656552543039
  C           0.20236781162828      1.08903876516754      0.58719921434094
  C          -1.05804366686037      1.09398692242282      1.40304322475286
  C          -2.14523402534994      1.75591205016497      1.05603094305899
  O          -1.77946652311558     -0.42604258975515     -1.26766298818167
  C           1.41491846768608      1.37197017766940      1.47986006635067
  H           0.17577240890429      1.91376448118349     -0.13441397973122
  H          -1.02921792699233      0.50418066184731      2.30768060736019
  H          -2.19381736759966      2.34374882234084      0.15419517281619
  H          -3.03814501218748      1.72661056108699      1.65487383613114
  C           0.50255877123024     -2.77423832716468     -0.17436858367619
  H          -0.93545866093332     -1.53727221431690      0.87330932945863
  H           0.69800333589938     -1.46634355643158      1.53582524931401
  H          -0.35500851989026     -3.43003164060597     -0.29336881354301
  H           1.28284858172460     -3.33111089376210      0.33650529985615
  H           0.87076354859646     -2.52928258460117     -1.16798448037888
  F           0.51270552371498      1.54842032360720     -2.56382132866323
  F           1.00341366906610     -0.48820596785713     -3.07540218905054
  F          -0.89268370897494      0.34724188045864     -3.67160133806200
  F           1.57078614714416      0.45146217207776      2.45874699887937
  F           2.56138181648853      1.35269364575194      0.76143687380156
  H           1.33706339352012      2.35766481135932      1.96508737554964
