26
Coordinates from ORCA-job NEB_product E -52.576983075390
  C           2.37740852591614      1.49089872039002      0.84043798658239
  C           2.11402723755740      2.17381309516473     -0.47757256353777
  C           1.49470227324155      0.21844903364747      0.83916193568016
  H           3.42926110136458      1.20162962887064      0.91505067062855
  C           3.19382973909945      1.86783465979541     -1.55804198965343
  C           2.02035241413974      2.46624130795721      1.98340883058540
  C           1.96618860834852      1.80338526649235      3.32851442720761
  C           0.86000013432409      1.67126064653399      4.03546786167602
  O           1.15416973567068      2.83201394008047     -0.75014127834978
  C           3.07048255329524      3.58175642037476      2.03150425028151
  H           1.05610135232274      2.92909605609619      1.74912482954804
  H           2.91585444924564      1.44720011528780      3.70341968430078
  H          -0.09098417235757      2.03052170615477      3.67798847576343
  H           0.85831070581032      1.19425478172359      4.99995354202301
  C           2.13010055963440     -0.92920510616104      1.61135722051273
  H           1.33354295354611     -0.10688717603128     -0.19103165885934
  H           0.52059534181522      0.46833281451626      1.26078920402673
  H           3.08815959470673     -1.19856529994346      1.17368884030100
  H           1.48056322781712     -1.79970231442209      1.56927752894151
  H           2.28131078718534     -0.66300550517951      2.65310167501798
  F           3.24301342483188      0.54493749559218     -1.81162849345465
  F           2.95371054109090      2.48239184782004     -2.71117549863417
  F           4.41718469541701      2.22053304330244     -1.14898559855190
  F           4.29717579795892      3.07892891322917      2.30959731970896
  F           3.18618973152365      4.20234581596011      0.83285189545641
  H           2.84284868649422      4.34824009274775      2.78758090279882
