26
Coordinates from ORCA-job NEB_reactant E -52.569054691080
  C           1.87370835131848      0.31527069733416      0.07797989069804
  C           1.37693267614741      1.42442930092034     -0.46261886787228
  C           1.93468666207796     -0.17801786694463      1.48813363558916
  H           2.34572018749240     -0.36425032555138     -0.61925040213372
  C           1.47491799181087      1.63945755294061     -1.96412556672878
  C           2.30417902386098      2.90233847709914      3.29104122673243
  C           2.04230348509197      3.01252273387967      1.99980787121563
  C           0.68413363685037      2.82691768315589      1.39553204217504
  O           0.72455104848898      2.52442321160103      0.01912725772577
  C           3.66682866049367      3.10130285893704      3.88168460915852
  H           1.54962498494177      2.64191786309066      4.01904431946202
  H           2.82412137368301      3.27071061720107      1.29809599437650
  H           0.14434150608336      3.78154084445852      1.42501631701629
  H           0.09058612525279      2.08650971345824      1.94598645301662
  C           3.39050621183050     -0.37385574304461      1.91600161719988
  H           1.42531398876725     -1.14555794954914      1.52125047687440
  H           1.43746370405652      0.48421906524075      2.19035107915743
  H           3.88955995975291     -1.08405582467581      1.26175141994830
  H           3.43423476223500     -0.74910611087650      2.93502398103557
  H           3.93058221386727      0.56835955484582      1.87425986433777
  F           0.26986615752274      1.80825155005213     -2.52625752349690
  F           2.18990840771775      2.73721690733306     -2.25766385781454
  F           2.05719651808548      0.62518989825145     -2.61569470363244
  F           3.99359589323432      2.04847969955269      4.67738659696537
  F           4.62993321219001      3.17399309062600      2.93502169236075
  H           3.73730325714625      4.01129250066380      4.50301457663317
