18
Coordinates from ORCA-job NEB E -34.873428452140
  C           0.48501865628941      0.38862057716344     -1.18525990444737
  C          -0.71407109534308      1.10982917993913     -1.37186737440361
  C           0.50170257337108     -0.97222611529138     -1.61336857770281
  H           1.41360455867999      0.91044793531997     -1.40238682029638
  H          -0.65452061041846      2.19659287783239     -1.47721713110405
  C           0.40759663372300      0.20011159761392      0.71587997657267
  C          -0.79287292305448     -0.50124752263542      0.89282158024069
  C          -1.99172440494764      0.15416976926748      0.50644452831983
  O          -1.85105655302915      0.58895181063448     -1.06722813633016
  C           1.70558139667577     -0.44656053844221      1.14507344254820
  H           0.41999239989660      1.25649045117660      0.97278532030385
  H          -0.75566678509291     -1.58023014603954      0.85102336835997
  H          -2.16314445041829      1.13995438080620      0.93116148784981
  H          -2.88840999196050     -0.45255150907654      0.49422379737623
  N           0.47848639508914     -2.04429093628299     -2.00986035198719
  F           1.79804674668746     -1.74000017121240      0.78283029413985
  F           2.77059107396669      0.19007919645057      0.59373359245416
  H           1.83084637988537     -0.39814083722370      2.24121090810632
