18
Coordinates from ORCA-job NEB_reactant E -34.916608186220
  C           1.85596846254314      0.10162890097276      0.16270829669809
  C           1.54537575666058      1.14630285106333      0.94556196498177
  C           1.90064607419131     -1.25680741532115      0.51078676483404
  H           2.10288235786026      0.29750186196534     -0.87121238079144
  H           1.55056859450309      2.14331951078266      0.52027904378655
  C           2.81792281107197     -0.53153717735494      4.79440815530991
  C           2.52053948502068     -0.32082605710754      3.52399463650314
  C           1.15307588289243      0.05301927016805      3.03994535950218
  O           1.18457730670054      1.21865173876623      2.22858911514241
  C           4.18662978586438     -0.90533849244430      5.27756890081127
  H           2.07965962353726     -0.47445603073036      5.58076298270945
  H           3.28573890195453     -0.40033789100794      2.76403678318194
  H           0.50233628466891      0.30789960841388      3.88010782301704
  H           0.71408878461677     -0.78594715941079      2.48668814399279
  N           1.94909404982248     -2.38270978643382      0.73522901026734
  F           4.15483470754883     -2.09321859960103      5.93685016977790
  F           5.07047612981376     -1.05206915064169      4.26536480737623
  H           4.60328500072910     -0.15967598207871      5.97823042289940
