18
Coordinates from ORCA-job NEB_product E -34.916756909040
  C           2.94713974464438      0.24151364240054      1.84441669200360
  C           1.95918470865693      1.26956564571351      1.31164693750266
  C           2.91236875953377     -0.92819031949147      0.99440821746989
  H           3.94694833968366      0.69142492631320      1.74735737786861
  H           2.03785663421661      1.41855767474355      0.21997674570001
  C           2.66896016843476     -0.09120698503572      3.32881092150634
  C           1.54589307087663     -1.08186106875971      3.46993053811320
  C           0.35417181199424     -0.76390882977860      3.93609151532568
  O           1.18312035054850      1.87514893071034      1.98617917714869
  C           3.93474042278180     -0.62225572350541      4.00060827891626
  H           2.40176751614602      0.84700690933328      3.82809670036854
  H           1.77384123896367     -2.08606653974938      3.13881958168657
  H           0.11611308551216      0.23868585130577      4.25068156068606
  H          -0.43458937022956     -1.49188392429475      4.00833236428320
  N           2.86167031558407     -1.84243442514488      0.31279966122258
  F           4.42732664886437     -1.70641456488031      3.36032748293108
  F           4.91935760836356      0.31324152741851      3.96178917526489
  H           3.77072894542447     -0.89592272729846      5.05372707200213
