20
Coordinates from ORCA-job NEB E -45.273081245530
  C           0.40903334540319     -0.59417905710342     -0.67445760521863
  C          -0.90613805585180     -0.07559050119947     -0.59833255514066
  C           0.66488626978062     -1.99316189210335     -0.17393400675231
  H           0.89891650900443     -0.48300212439917     -1.63922283699095
  C          -1.33723336277133      0.86315864741696     -1.71384454285571
  C           1.36359459053888      0.47581872902375      0.62859336916605
  C           0.41811399227765      1.22141515632849      1.34361364270796
  C          -0.67949679491973      0.49942126514951      1.86661806860390
  O          -1.52525148245350     -0.01868153723582      0.51659388626326
  I           2.84857110411690      1.56984941067618     -0.43883339794747
  H           1.82934841240212     -0.35780034099426      1.13619275102301
  H           0.23878975829118      2.24654528785850      1.04566665333074
  H          -1.45368072017650      1.07079308803852      2.36293099882435
  H          -0.47295825661307     -0.44845331761156      2.35073486188945
  F           1.97327280220554     -2.29605666367080     -0.18473011698221
  F           0.23017205029716     -2.25356529393590      1.06184973683312
  F           0.07119979791948     -2.88841822008825     -0.98223648943863
  F          -2.44887705627724      1.56175286163791     -1.35556764317582
  H          -1.57596939574210      0.30361686933961     -2.62562680525988
  H          -0.54629350743187      1.59653763287255     -1.92600796887956
