20
Coordinates from ORCA-job NEB_product E -45.325173462110
  C           2.46427329017567      1.36233873512400      0.64814682593852
  C           1.12328872365632      2.06659055461780      0.35465834082441
  C           2.18850409600199     -0.12923803451383      0.84530590149497
  H           3.12007823633554      1.43202523907727     -0.22697162661110
  C           1.02602416509054      2.55556816383230     -1.07643799407998
  C           3.18858967602661      1.92659176774952      1.87568506102050
  C           2.44883942482809      1.80306056918717      3.15680046108338
  C           2.99385962275369      1.27854821963263      4.24050561853847
  O           0.26249685910268      2.19278471210611      1.17116915830826
  I           3.61220031946303      4.03940759369605      1.46731637428546
  H           4.17502507316974      1.46467896066820      1.95480681986016
  H           1.43375292898748      2.17205108823131      3.16157824412708
  H           2.44136816264345      1.19374953904835      5.15893171345867
  H           4.00644523463625      0.90745380487168      4.25074819162024
  F           3.31490936782432     -0.80060027296079      1.12990300444604
  F           1.31924709650137     -0.40423026701550      1.81143028134311
  F           1.70366490395527     -0.66642557616614     -0.28678590961578
  F          -0.18412002474058      3.12379390040879     -1.32019362616206
  H           1.14546534003076      1.71163739055659     -1.76846943482016
  H           1.79498750355778      3.31461391184851     -1.27162740506021
