17
Coordinates from ORCA-job NEB E -41.571065927060
  C           1.06553901682002      0.08014847777718      0.33276571933143
  C           0.35547938850654     -0.87685646496965      1.06828465414680
  C           0.96730081215501      1.52681371301437      0.75566515001002
  H           2.09753714828052     -0.15597438356535      0.08565461270752
  I           1.21132586932057     -2.86362786218874      1.05881401698686
  C           0.11110915417987     -0.15930453869204     -1.38706481753911
  C          -1.22641721267163     -0.01807255570516     -1.03158224615283
  C          -1.77724174065046     -0.93870549240620     -0.10365730696225
  O          -0.88638463689084     -0.80378137691306      1.28037274957324
  F           0.63522609804287      0.74129275443730     -2.22719055723106
  H           0.53836729906227     -1.13947199763416     -1.59182382688321
  H          -1.68386426305628      0.94977533924635     -1.16270099725853
  H          -1.61025333481495     -1.99569844733871     -0.29835184284062
  H          -2.77838508176559     -0.72744932686756      0.24894395809678
  Cl          1.74710115823938      2.61518971578164     -0.41204885584198
  Cl         -0.66526583461785      2.10689336138480      1.08503064260268
  Cl          1.89882615986054      1.65882908463898      2.29888894725427
