17
Coordinates from ORCA-job NEB_reactant E -41.601029041710
  C           1.68722879705684     -0.04850769287797      0.10190840257019
  C           1.16560509900095     -0.89143369605961     -0.79474286278823
  C           1.92478131279479      1.38124347544012     -0.22172529984087
  H           1.96874554922382     -0.38461346537387      1.08406850016242
  I           0.85069459471747     -2.90822945307746     -0.19717238034907
  C          -0.01963728901362     -0.90193058015063     -5.29012444248876
  C          -0.25314216830692     -0.43419684334607     -4.07868851427850
  C          -0.02961391492360     -1.23886791326328     -2.84125721202404
  O           0.90663602677094     -0.53230784898548     -2.03695279979500
  F          -0.23992943500392     -0.16642110569613     -6.38162964970508
  H           0.33581524569218     -1.89389332033920     -5.53330958544854
  H          -0.59813229053129      0.57871950295689     -3.93734867831241
  H           0.36431092161603     -2.23264839254871     -3.08919032963656
  H          -0.97464904497336     -1.35180866313201     -2.29258505755268
  Cl          0.42825296491479      2.17231239746273     -0.79683557574662
  Cl          2.49609875211339      2.25273185617255      1.20922714949127
  Cl          3.15233487885151      1.55685174281815     -1.51724166425753
