23
Coordinates from ORCA-job NEB E -32.474224463710
  C           0.11663183477833      0.03418881043443     -1.04711011080123
  C          -1.17793166815750      0.47409136347037     -0.73277616838879
  C           0.31362080374156     -1.40181744022613     -1.46798227664119
  H           0.72586255583333      0.73369184057489     -1.61359941499165
  C          -1.52554490061886      1.93592861935855     -0.78385672651274
  C           0.83883554640079      0.10828912584499      0.73694479424289
  C          -0.00942576854186     -0.72998319244735      1.46351272713398
  C          -1.39213613817703     -0.37269193170153      1.52295541820732
  O          -1.92006112053029     -0.30610808887134      0.01861103572526
  C           2.30329132483789     -0.24226167862108      0.63245470841254
  H           0.70921847012989      1.17839911270554      0.88149319879559
  H           0.25326535425195     -1.77350209768885      1.55964867835390
  H          -1.60257335097428      0.63871938602034      1.86868678987721
  H          -2.05351150617570     -1.10005911167479      1.97984317714285
  H          -0.33623766325596     -2.05584749698501     -0.89377754220172
  H           1.34501321760494     -1.72265165609951     -1.35362160586841
  H           0.04590835292503     -1.49454525121590     -2.52052606855937
  H          -1.29719164482259      2.40998173923173      0.17561569913860
  H          -2.59217339774354      2.05302720369169     -0.96073152979951
  H          -0.97056290456502      2.44468143850071     -1.56593874251316
  F           2.99571211663848      0.39691566542431      1.63881107048358
  H           2.74932635323336      0.10502936114526     -0.30548147376361
  H           2.48066413318707     -1.31347572087135      0.76682436252764
