23
Coordinates from ORCA-job NEB_product E -32.519651859470
  C           2.76830563918915      0.35616382074883      1.00398049814470
  C           1.32017433276791      0.83846861898762      1.03739041990466
  C           2.85871456405494     -0.97249345165712      0.25763566370439
  H           3.38071798685099      1.10804273735723      0.49489475375780
  C           1.15403026844239      2.33591943910396      1.01162669533645
  C           3.25262762836458      0.26878136117516      2.47446288236402
  C           2.46029901986834     -0.72907641562659      3.26761546863088
  C           1.58408729659643     -0.40133008387340      4.19692603435113
  O           0.38845675285897      0.07945176085371      1.08351768145512
  C           4.74711280571138     -0.05713330949270      2.53432979281772
  H           3.12520331315635      1.25716416360268      2.93109524584430
  H           2.65107749521810     -1.76768806729368      3.03726626714966
  H           1.37808770954739      0.62593201557033      4.45011761023130
  H           1.03168232813802     -1.14500861803461      4.74393666129629
  H           2.15989701839897     -1.68659391169726      0.68341853256615
  H           3.86468986254446     -1.38045339439383      0.29641375587718
  H           2.58909025280353     -0.82197749940359     -0.78569136954202
  H           1.85442543419877      2.81713599500167      1.68906843756678
  H           0.13483626979885      2.60641727027118      1.27359922847982
  H           1.36287015176366      2.68954034316059      0.00283126737968
  F           5.24310960144389      0.26213497280545      3.77460565183966
  H           5.31724967937957      0.53606883127163      1.81064885745378
  H           4.94405458890336     -1.12306657843726      2.38770996339053
