17
Coordinates from ORCA-job NEB E -40.243127470120
  C           1.08497038857856      0.22187064100226      0.16484945197730
  C           0.39797462815153     -0.02326713573981      1.37105867301886
  C           1.04287054907339      1.62810780433284     -0.35970548093821
  H           2.09552461394176     -0.17960987956370      0.10469134838449
  Cl          1.05348574883965     -1.33042372848276      2.36016346605831
  C           0.03658061783951     -1.07311976065172     -0.90172995475188
  C          -1.29222040262008     -0.68965601794254     -0.70497517265193
  C          -1.81662708267938     -0.74886693641315      0.60539229509214
  O          -0.81935502601151      0.26819195019662      1.51998794697527
  Br          0.68893019233514     -1.14049515095451     -2.69721435821887
  H           0.42259583098234     -1.92338878147667     -0.34840644081248
  H          -1.78171464934064     -0.07605637377741     -1.44559012197857
  H          -1.63923847859990     -1.65327384761961      1.17905093937584
  H          -2.79421995000367     -0.31398323675845      0.76422216401573
  Br         -0.70563376346907      2.41549974144254     -0.57801998873969
  Br          1.99641331858458      2.75995525834739      0.98234348270500
  Br          2.02966346439779      1.85851545405867     -2.01611824951130
