17
Coordinates from ORCA-job NEB_product E -40.288228964220
  C           1.83864770924837     -1.27138168340743     -1.36583542783754
  C           1.64627105995438     -1.34975787938819      0.14094521285596
  C           1.50197635602951      0.13054884864127     -1.85663879667929
  H           2.90608392322398     -1.43711346111369     -1.56412481513663
  Cl          2.55013383262530     -2.68846705841393      0.83686623090481
  C           1.06131948476176     -2.45270920878776     -2.00253064899318
  C          -0.35173248633950     -2.18692971178300     -2.39433144711030
  C          -1.37744405416396     -2.71972584690064     -1.75473147019059
  O           0.98197467795161     -0.64676204836707      0.82057471483899
  Br          2.05063052092000     -3.12903764589095     -3.58721490248086
  H           1.10357399821060     -3.28804887872962     -1.29908470323675
  H          -0.50330361838605     -1.57545575526017     -3.27294176544112
  H          -1.24820839243605     -3.35233121302604     -0.89166106088395
  H          -2.38888726409688     -2.52634969971496     -2.06348619083342
  Br         -0.28452345836678      0.74848635224392     -1.41436465388389
  Br          2.77432131127875      1.37737303530354     -1.02155504956900
  Br          1.72936639958494      0.28706185459474     -3.78038522632325
