17
Coordinates from ORCA-job NEB_reactant E -40.283987905870
  C           1.57763085934921      0.11533733784624      0.09018481902245
  C           0.92626595335564     -1.05029309013084     -0.04740208723957
  C           1.98517199741171      0.86393426790250     -1.11093054507925
  H           1.81304881068163      0.51336405063828      1.06146942402034
  Cl          0.43416704008510     -1.96093195829288      1.33136174439614
  C           0.20941652879555     -3.89657751139175     -3.62636549525648
  C          -0.26075843542975     -2.87898219298922     -2.92687200366476
  C          -0.04211093961891     -2.73705059205369     -1.45391948816051
  O           0.65692368630088     -1.51146426861403     -1.26154920857196
  Br         -0.08033846537566     -4.07680640688997     -5.47616826355438
  H           0.77246126224048     -4.71252181032831     -3.20007106326505
  H          -0.80586937512807     -2.07417228258484     -3.39790706957754
  H           0.54905871840070     -3.56954317779509     -1.05571441363515
  H          -1.00572796342111     -2.69366305911976     -0.93008983526664
  Br          2.88766676329754      2.51131730567369     -0.64324374463099
  Br          3.20143450379455     -0.19553690566856     -2.25142517639568
  Br          0.44065905526052      1.32079029379823     -2.24505759314097
