21
Coordinates from ORCA-job NEB E -48.307193083570
  C           0.22246890346265      0.85301981230684     -0.64835483498270
  C          -0.25983983871097     -0.14612043659741     -1.52407144532427
  C           1.62292823247215      1.32788457201536     -0.79727543086822
  H          -0.47261347909241      1.67775846155491     -0.52969136640306
  O           0.62720526377219     -0.93467192820386     -2.13732495641418
  C          -0.35054204156742      0.05115663031846      1.17876267204237
  C          -1.34920995578200     -0.87581590885252      0.86072111840573
  C          -2.36402777106055     -0.51412149841120     -0.02391333805335
  O          -1.49020017348113     -0.42922595866637     -1.58247745519490
  C           0.78953778334956     -0.52565019128473      1.98580297274113
  H          -0.62685251567114      1.03833384738639      1.52592944381302
  H          -1.07688402049203     -1.92310597588311      0.90088057421409
  H          -2.72929073006546      0.50411053635925     -0.01031110188356
  H          -3.10156247118061     -1.24851474026694     -0.30885846633814
  Br          1.98570356777024      2.79586340629477      0.43539305393596
  Br          3.00757204711572     -0.00575366975633     -0.63927190865785
  Br          1.82774233181652      2.12020735312014     -2.63702771951653
  H           0.18491483788398     -1.65604012440303     -2.60838250521489
  F           1.30287764652927     -1.63754777168969      1.41089248707692
  F           1.81142949856537      0.33797009230528      2.15406753928475
  H           0.43864288436605     -0.80973650764620      2.99451066733767
