21
Coordinates from ORCA-job NEB_product E -48.359533392450
  C           1.57465792079549     -1.05660609276245      1.97627761343635
  C           2.94250777798413     -1.78900351186419      2.10092025564559
  C           1.38239692017897     -0.43616905204965      0.60285494152716
  H           1.67419454999121     -0.20493821202296      2.66697614491622
  O           3.13498011649040     -2.87978451506899      1.38194996400595
  C           0.37974999958660     -1.89474338375426      2.49210718472739
  C          -0.06062779453487     -3.04488314369876      1.62623746365622
  C          -1.23929731900371     -3.08499060287803      1.03240504517075
  O           3.77627913679956     -1.34777878299074      2.83256155180942
  C           0.71883370313058     -2.42071021050191      3.89734512991102
  H          -0.47358626877743     -1.21758321661416      2.62361303727021
  H           0.60713388304679     -3.89533576088320      1.57964390023208
  H          -1.94021179941100     -2.26883236179285      1.09515965470958
  H          -1.54185790164455     -3.93442078791639      0.44662931560030
  Br         -0.28414608574634      0.60063662909183      0.53952505635052
  Br          2.86701798985880      0.80466241294436      0.24261561815885
  Br          1.31738846946762     -1.69630642165790     -0.89053395404994
  H           2.37946873026244     -3.18086013264069      0.85275066013132
  F          -0.40203430465385     -2.88292721316878      4.49131431762494
  F           1.57620025832815     -3.46349696953679      3.83420108630334
  H           1.16385201785098     -1.65792867023348      4.55504601286270
