20
Coordinates from ORCA-job NEB_reactant E -51.804049525830
  C           1.50629326964079     -1.19183531981489      0.20775765919245
  C           2.25097339924574     -0.93837347951374      1.28723575018413
  C           1.86277320160118     -0.89066045807265     -1.19185613282780
  H           0.54872818575265     -1.67539099517993      0.34144682130030
  I           4.14858996976109     -0.03855637634632      1.26794214652752
  C          -0.52901019529442     -3.76699587577017      1.98830144069007
  C           0.58892510993528     -3.20701539384987      2.41970579615702
  C           0.69381640274715     -1.78664993747673      2.88292122131393
  O           1.94341224740796     -1.19741015826844      2.56282203117886
  C          -0.60640766143209     -5.20400917475624      1.57028451140829
  H          -1.47096053389654     -3.24343259450745      1.91595389188295
  H           1.50757528878259     -3.77719622596011      2.47499766173065
  H           0.66923457640556     -1.76635145213329      3.97802731959165
  H          -0.13196282026449     -1.17435439035357      2.50053001056897
  Br          0.41577099697694     -1.45488216846755     -2.37717998116952
  Br          2.14187084205640      1.03817983751611     -1.51000718440441
  Br          3.49160643455605     -1.83932122530126     -1.78185701913108
  F           0.56837060473114     -5.83916968660886      1.64532210397700
  F          -1.47076433536400     -5.89321524464467      2.33236083892608
  F          -1.03413498334897     -5.32485968049036      0.30399111290294
