20
Coordinates from ORCA-job NEB_product E -51.804373666870
  C           1.42540989171659     -1.83185400503299      0.69156041983580
  C           2.81601394284120     -2.09853215842339      1.27665994075535
  C           1.27227188029232     -1.60524083583427     -0.80768684419834
  H           1.15722158304632     -0.86334458735521      1.14946763155873
  I           4.48642709629958     -2.55491205691113      0.01463281477455
  C           0.40410851740239     -2.83729654581628      1.30527135506702
  C           0.12941483340936     -2.46661160424244      2.74441723593676
  C          -1.01286210523982     -1.93484615169590      3.13291027950129
  O           3.00475326477624     -2.03296733301357      2.44493982962750
  C           0.79148103069552     -4.32327612384068      1.22710610290733
  H          -0.53898959146685     -2.75478261422878      0.75078057486220
  H           0.93304657535035     -2.65404651868941      3.44092598704210
  H          -1.18205189073004     -1.67112974040825      4.16132463380798
  H          -1.82170923348764     -1.74314138022462      2.44633372765348
  Br         -0.57278131078497     -1.01333872737882     -1.17322630984466
  Br          2.39116334003421     -0.09473978478166     -1.36760938970894
  Br          1.61065330329088     -3.13915354515114     -1.94552710403208
  F           2.11107875405272     -4.54945164974539      1.20745818707747
  F           0.30493168056796     -5.00415639688501      2.26907176434847
  F           0.28741843793370     -4.91097824034106      0.13388916302798
