24
Coordinates from ORCA-job P E -30.454285105870
  C          -1.29205917085489      0.34265890628597     -2.34227275667291
  C          -0.10479064615623     -1.71756524386036     -0.98291179420609
  C          -1.44847478589875     -1.95365870035953     -1.59612903540424
  C          -2.01581978050770     -0.96717078529589     -2.26951797963535
  C          -0.85869869578738      0.73220397538981     -0.91268043077775
  C          -0.06183255100017     -0.38505889834432     -0.20780384806850
  H          -1.91193793433669     -2.92100903458334     -1.48324357655537
  H          -2.98377327461405     -1.03566923881255     -2.73860995692090
  C          -2.13908889693328      1.44683487928597     -2.95110469130537
  H           0.17418483423874     -2.53465650096719     -0.31732885289880
  H          -0.38678274086649      0.23087022247783     -2.95335657957598
  H           0.64223510898911     -1.67423740061801     -1.78325789762091
  H          -1.76489820914885      0.95125192839945     -0.34482966765768
  H          -0.51730017212053     -0.56017454057126      0.77180734497459
  H          -0.25711058268232      1.64101336382831     -0.94603334169089
  C           1.39063792719708      0.03376115189303      0.01232320448132
  O          -3.31061700216561      1.31395114200258     -3.19706489955042
  C          -1.41103181243487      2.74575791492319     -3.20621649075132
  H          -0.37160653786324      2.58056710796316     -3.47396343744980
  H          -1.44604043978729      3.34496879937616     -2.29730536078892
  H          -1.91726833493901      3.30127356007671     -3.99169005156783
  H           1.87199961045794      0.25778820614306     -0.93784323385235
  H           1.94720855324030     -0.76563342445744      0.49681278274502
  H           1.44535553397417      0.91771260982466      0.64413055075046
