23
Coordinates from ORCA-job NEB_reactant E -40.969906808860
  C           1.45032542750913      0.06176783956674     -0.21414469060355
  C           1.44075870990251     -0.87939807683445     -1.17264496028564
  C           2.00511497854187      1.43809200751029     -0.19100004154662
  H           0.97989490334700     -0.18400164764968      0.72370093680602
  C           0.79376842977230     -2.20793211332541     -0.89161867271023
  C           2.76024001745591      0.57602458509708     -5.44486117269584
  C           3.00468008635671     -0.16912383814870     -4.38054630246539
  C           2.63414925845734      0.21650323334566     -2.98206836785309
  O           1.92858062423482     -0.88447180950769     -2.41241382383124
  C           3.14646374720853      0.21494084636441     -6.83813789955331
  H           2.26008044749402      1.52950499180236     -5.33110155365485
  H           3.49804910217985     -1.12638944847622     -4.47198149311683
  H           2.00743905929822      1.11250215511134     -2.99023375636324
  H           3.54436975997818      0.40956934597052     -2.40065536489240
  F           3.34266225663814      1.51884681171923     -0.38445427174397
  F           1.46451091300293      2.28487016120191     -1.09873127435465
  F           1.78361109615779      2.00890979573402      1.00401292987991
  H           1.56207541051438     -2.97691736193601     -0.83881446186415
  H           0.12814576135669     -2.46189847775677     -1.71293265362460
  H           0.23855396220942     -2.19220572868148      0.03886190338487
  H           3.63401344407503     -0.75567601839556     -6.87090724015058
  H           3.82413290240263      0.96493270452188     -7.24474890277599
  H           2.26377970190658      0.19015004276652     -7.47607886598463
