23
Coordinates from ORCA-job NEB_product E -40.981944078620
  C           2.15996354594960     -0.37259480686718     -2.29215890583440
  C           0.73223391100203     -0.94861196874108     -2.37002820068084
  C           2.17761471604296      0.64907183801641     -1.16084520173224
  H           2.87677646122867     -1.15244848246972     -2.01880185835101
  C           0.58031479305973     -2.31012222668169     -1.76056481451934
  C           2.54676518575305      0.28113787952916     -3.63636834197393
  C           3.85875197978519      1.00167244003753     -3.53116978012050
  C           4.00515512998188      2.29794770339608     -3.72482277676284
  O          -0.16298799090867     -0.32910153284810     -2.87238029706576
  C           2.62840786802973     -0.79778412100564     -4.71835637633357
  H           1.75700175846410      0.99229492797194     -3.89776516169336
  H           4.71124962971219      0.37879569310174     -3.29320076579669
  H           3.16639567464386      2.93341680534598     -3.95631528074785
  H           4.96536074694859      2.77824568647805     -3.65255102127608
  F           3.42432793934487      0.97983203910417     -0.78763768345996
  F           1.54704182326300      1.78486862197080     -1.45268949983473
  F           1.59326915944469      0.15827820892982     -0.04791664003662
  H           1.24607541551165     -3.01439072945190     -2.25556391928524
  H          -0.44801343278776     -2.64849668206851     -1.85338862284762
  H           0.85531800914929     -2.26559417414649     -0.70804384821172
  H           1.66889732216641     -1.29480700726971     -4.83946032059318
  H           3.38161018056476     -1.54146343998485     -4.46448170888789
  H           2.90227017365019     -0.34274667234681     -5.66648897395464
