20
Coordinates from ORCA-job NEB E -28.380178960580
  C           0.33983662640700     -0.54596495535364     -0.62339455658619
  C          -0.79066748159217      0.35954997623513     -0.66991288794280
  C           0.03922776710311     -1.91751325064838     -0.01613111011017
  H           0.76380309474290     -0.67441882618863     -1.62166680167482
  C          -1.13821742008202      1.12837889903377     -1.89792648961757
  C           1.39967819777902      0.23795754409732      0.29473703003710
  C           0.79980532919719      0.53624197980268      1.55345843782596
  C          -0.66140197408553      0.75204068622007      1.65969814779889
  O          -1.40434730784644      0.74488144190727      0.45233793339296
  I           3.34283682544775     -0.93497389034257      0.53528036092729
  H           1.78277525782941      1.05150861607644     -0.31348629433320
  H           1.27773918698101      0.25473589975673      2.47527929884584
  H          -0.86477797518577      1.75898832871348      2.05092663739237
  H          -1.11606475500305      0.04822955364059      2.37104798328239
  H          -0.26360411426023     -1.83510586929252      1.02427545854879
  H           0.91579973437385     -2.55643334206547     -0.07046675994675
  H          -0.76528367826078     -2.39238395530890     -0.57433526371391
  H          -0.30921403550509      1.78423077458418     -2.18054311249066
  H          -2.01736076249748      1.73925787281939     -1.71282676717891
  H          -1.33056251554269      0.46079251631306     -2.73635124445660
