20
Coordinates from ORCA-job NEB_product E -28.437877908650
  C           2.64749307933773      0.69828026571151      0.67637453379839
  C           1.20725907581533      1.21579781859777      0.76179105498729
  C           2.63655457683899     -0.79726036496076      0.37142393529627
  H           3.17775387828684      1.23202777194607     -0.11845362194970
  C           0.94243544518428      2.46572209661872     -0.03195219071363
  C           3.29656654294863      1.05160500093513      2.01788323421525
  C           2.74626247966167      0.31784864025059      3.18252157465463
  C           2.23495076480679      0.92193686872075      4.24028377406407
  O           0.37065374049402      0.66283454315883      1.42505177121903
  I           5.46463832081853      0.68204497020561      1.91876558277911
  H           3.23162953549619      2.12897764825146      2.18333545558445
  H           2.79362278437692     -0.76004760391489      3.13332041683130
  H           2.18429212585660      1.99643618417929      4.31569966964766
  H           1.83481257516010      0.36558735070684      5.06929787154370
  H           1.94060758090600     -1.31138988480595      1.02990606346732
  H           3.63030617911615     -1.22396582990861      0.49154016367499
  H           2.31634707382199     -0.96091152363509     -0.65548909887326
  H           1.66522115968503      3.23631754539523      0.22887955764669
  H          -0.06572339143900      2.82617831164994      0.15444584143116
  H           1.05611647282723      2.24528019089753     -1.09222558930472
