21
Coordinates from ORCA-job NEB_reactant E -37.623991315600
  C           2.12551624480290     -0.79127114507217      0.27064128155349
  C           1.18370288019533     -1.68315984127654      0.57635830172019
  O           2.95529537982296     -0.83964029316678     -0.82526017314513
  H           2.24902768742996      0.05483868403417      0.93188168906654
  C           0.30718217907589     -1.47862885355712      1.78814958480008
  C           3.35996412786214     -3.99165223929336      0.46498061193905
  C           2.96099671966375     -3.76136291530470     -0.77365933538067
  C           1.59719031566847     -3.27203974393330     -1.15829294286565
  O           0.80796472405560     -2.82937315594362     -0.07192921325527
  C           4.72503201070967     -4.46796048516783      0.84362429223765
  H           2.70246225973950     -3.84170131358747      1.30940497291752
  H           3.63315434393170     -3.91806841634568     -1.60464435804941
  H           1.02210467519367     -4.09606494518447     -1.59663330848690
  H           1.69620573801817     -2.48103757857207     -1.90961197971319
  H           3.71838947215302     -0.27465060081544     -0.67238184367040
  F           0.95499163418189     -0.77056871348660      2.76830182013978
  H           0.03222510957980     -2.45030619510759      2.20951628565345
  H          -0.60052750639057     -0.91584289324676      1.54055278755218
  F           5.54467649172607     -4.62445493521167     -0.24590008129699
  H           4.67412393952521     -5.44393342817699      1.34334164435259
  H           5.21952157305484     -3.74942099158401      1.51005996393108
