21
Coordinates from ORCA-job NEB_product E -37.629340430660
  C           2.92191696229052     -1.82400531496274      1.19641757091148
  C           1.59451253140482     -1.14601129876869      0.85881373618873
  O           3.97481317349092     -0.99907776355116      0.79858922678403
  H           2.98033121782862     -1.96472647743533      2.28716629010800
  C           0.34254204520230     -1.87628610435338      1.29375469909531
  C           3.00612092144693     -3.21546704174676      0.51376200513324
  C           2.70270904119439     -3.10503121598155     -0.95178081486714
  C           1.76651265511546     -3.79808403591413     -1.57065640884114
  O           1.59032141465426     -0.09659501840901      0.27309705142729
  C           4.41947119924271     -3.76836609227231      0.72609648673627
  H           2.29896558802856     -3.89734061151903      0.99564604635367
  H           3.32739810249735     -2.40785938604865     -1.49286811793973
  H           1.14942851120324     -4.51493129489916     -1.05274707670121
  H           1.58978268097502     -3.69448543757608     -2.62667668943017
  H           3.58456132710276     -0.24632849685791      0.31876185176237
  F          -0.75936350022844     -1.08445210320197      1.16182620786736
  H           0.40676280817742     -2.18170362768872      2.34371580620446
  H           0.19007075065882     -2.75363048585748      0.65359521920359
  F           4.47043187648480     -5.07927791806582      0.32872136947883
  H           4.69645797786635     -3.74440670762709      1.78472855802867
  H           5.15355271536316     -3.21583356726300      0.13483698249610
