20
Coordinates from ORCA-job NEB_reactant E -33.551255776330
  C           1.45301085805060      0.03598171726167      0.10786460823351
  C           1.45192718997295      1.34609937680098      0.34238814453967
  C           1.36671938838864     -1.01659727096005      1.16659512429421
  H           1.52748636418979     -0.30431207918887     -0.91264227180787
  C           1.45047668053852      2.37422956791222     -0.76249294873606
  C           4.28992223847770      3.51381247620646      2.47901092152722
  C           3.71141987623120      2.47135897333699      1.91456212237156
  C           2.48491967029687      1.79637758983449      2.45243758318059
  O           1.36270397903204      1.93918345510129      1.57567282609792
  H           5.17614619402464      3.96565951751427      2.06722391217218
  H           3.90592618512986      3.95134980297787      3.38573793082614
  H           4.10836191029593      2.03901281033012      1.00504889365536
  H           2.15927779412794      2.26417383807338      3.38367445022392
  H           2.70968392269550      0.73974615410610      2.63472087826955
  F           2.62506606140629     -1.45548981966254      1.54582604197627
  H           0.83764835139753     -1.89917453242372      0.79522743273919
  H           0.88207638409462     -0.63880458567352      2.07271088182288
  F           1.38162778310426      1.80496769754303     -2.00387532715118
  H           2.36489383266362      2.97925256028827     -0.72920792494044
  H           0.58060533588152      3.03137275062155     -0.64918327929463
