20
Coordinates from ORCA-job NEB E -37.580052683220
  C           0.32424879943146     -0.20741586773887     -0.96452429639421
  C          -0.93911561990386      0.23126693484356     -0.51683213715076
  C           0.53658677269669     -1.69192525692487     -1.12525987285752
  H           0.75958355774799      0.37716740874189     -1.77116389900159
  C          -1.40031468922980      1.63967119555664     -0.84825328410325
  C           1.35244771613343      0.26916261785010      0.54581217376317
  C           0.72271657858685     -0.41466870780828      1.59290673952629
  C          -0.62402881228565     -0.06346485156145      1.88593922316696
  O          -1.47892660696093     -0.33631231611396      0.52210557381065
  Cl          2.99622009687806     -0.17658025754820      0.16726767614910
  H           1.24833624743425      1.34723214117887      0.48995326215905
  H           1.06851648670024     -1.40715326264327      1.83975543792537
  H          -0.82371559824849      0.99412915958451      2.03334083306253
  H          -1.13501513129893     -0.68779965368518      2.60832747039567
  H          -0.02669229231640     -2.23961853097231     -0.37454736204277
  H           1.58854274422011     -1.95353401073862     -1.05691461300991
  H           0.17749583349097     -1.98459601752374     -2.11069243966262
  F          -0.68851505872379      2.58180768806309     -0.14973009240534
  F          -1.19512276697206      1.92879834331063     -2.15316342281976
  H          -2.46324825738013      1.79383324412945     -0.61432697051108
