20
Coordinates from ORCA-job NEB_product E -37.614766618400
  C           2.75126919413488      0.63501968892305      0.60349922654220
  C           1.31201094095987      1.09055999344451      0.58399123374577
  C           2.84351511146384     -0.85707939014837      0.30155982963913
  H           3.29936579902889      1.20334450628885     -0.15648939414342
  C           1.09274383311002      2.62624429297735      0.57350620103045
  C           3.35144503712523      1.01858924547658      1.97618850277852
  C           2.73019091273787      0.28846645801402      3.11898340870987
  C           2.08607025808019      0.89447948799525      4.09922280869931
  O           0.35567460319741      0.36893401748212      0.59276959496173
  Cl          5.11359878549245      0.64808308384291      1.94968870608986
  H           3.28825424952685      2.09857192740819      2.12816896286511
  H           2.85691775749179     -0.78389815759937      3.11296951922767
  H           1.95827250930041      1.96399799190855      4.12283697127877
  H           1.64904130031193      0.34092804233075      4.91169671547611
  H           2.15268875099977     -1.41561038075569      0.92688786632498
  H           3.85600210272192     -1.20995158386123      0.47378281866424
  H           2.58060807829837     -1.03875720397560     -0.73740811062462
  F           0.99917372912736      3.08133253321924      1.84701306595388
  F           2.12831433520354      3.28603660513662      0.00837370912217
  H           0.16714271168738      2.89900884189228      0.04485836365825
