22
Coordinates from ORCA-job P E -47.653475480080
  C          -1.32241095866450      0.41442540800130     -2.36665919447835
  C          -0.11335546354106     -1.69578229223208     -1.08969639193221
  C          -1.44760073136886     -1.91359309971512     -1.73194046186191
  C          -2.02766976895085     -0.91110392727081     -2.36905212838890
  C          -0.87861114834781      0.75353931536126     -0.93320202357348
  C          -0.08906129721165     -0.39075116937233     -0.26708690981413
  H          -1.88832279681757     -2.89448885963248     -1.67613379284122
  H          -2.98029464713387     -0.99198061689370     -2.86472323749784
  C          -2.22792023098523      1.51580130835139     -2.89431306828776
  H           0.14397507001129     -2.54030126449057     -0.45064415789786
  H          -0.44967051808502      0.38096540917989     -3.03152889829471
  H           0.63979122540519     -1.63444731037400     -1.88374635737233
  H          -1.77517979743927      0.95748171729102     -0.34435082829335
  H          -0.54547969158281     -0.60694597894769      0.70653870903536
  H          -0.29192686968719      1.67485946627348     -0.95701092140602
  C           1.34378199008979      0.03607111709139      0.02506235677817
  F          -2.61861179209920      1.28443752305039     -4.15483995407174
  F          -3.34646791421676      1.65359694194360     -2.16593850895601
  F          -1.62337497890194      2.71347470140132     -2.89315635831410
  Br          1.37599262246535      1.56211770549175      1.26025864857120
  Br          2.35873932649469     -1.40096131915861      0.87709330903856
  Br          2.29555837056727      0.55861522465061     -1.60076983014137
