22
Coordinates from ORCA-job TS E -47.543052118810
  C          -0.69050675526329      0.33611138452590     -1.21161449513801
  C           0.60783235500226     -1.94952615793929     -0.04951988947678
  C          -0.70969881068304     -1.93681837864484     -0.34867332256132
  C          -1.34797329172736     -0.83327984221054     -0.95817902314096
  C          -0.22067648428668      0.92925447802955      0.86225188754045
  C           0.59558114498317      0.01069630307878      1.44638735302838
  H          -1.34693089579640     -2.72530921743388      0.02547060605309
  H          -2.42783535738534     -0.84426769706435     -1.01626833274994
  C          -1.46094244297791      1.50433245900325     -1.74727884733439
  H           1.02542458473831     -2.76063804782192      0.52304464434416
  H           0.36156433308921      0.37588333085833     -1.44422627415930
  H           1.31259974238315     -1.32439775594830     -0.56631514319410
  H          -1.26643710802253      0.94004647479970      1.11229389483291
  H           0.20173921283604     -0.73731392696483      2.11725856469124
  H           0.18786319434653      1.84965012874050      0.47532250385519
  C           2.05428460232860      0.24249761285795      1.55994914636154
  F          -1.78516698799738      1.35110157857918     -3.04440305827451
  F          -2.61755335704785      1.70476934402806     -1.09330677875921
  F          -0.77131431157323      2.65163702995345     -1.66433038707171
  Br          2.38560779529451      1.61984632004337      2.98772333616999
  Br          3.04277184921140     -1.34209286032337      2.10921112348266
  Br          2.86976698854782      0.93781743985331     -0.07479750849938
