21
Coordinates from ORCA-job NEB E -40.845500589200
  C          -0.11889773342092      1.18919279973532     -0.76693172209210
  C          -0.30804740044208     -2.11567159521263      2.85481266997320
  O           0.53747036556756      2.03140611397502      0.02270543143983
  H          -1.02560990926537      1.51417042353622     -1.26218406979351
  C          -0.37363522300730     -0.88873942155659      2.42269753862937
  C           0.44965110980263     -0.14962965497748     -0.91804430916811
  C          -0.55601574042436     -1.22252192849100     -1.16499832812408
  C          -0.52144520985438     -2.38624831614466     -0.54207001583770
  O          -0.22362416613993     -3.22988009977353      3.21248124828742
  N           1.46978148368097     -0.14375912118085     -2.09919274361750
  H           1.07669421802487     -0.35499054098677     -0.04385600513427
  H          -1.32088703110509     -1.00619756678414     -1.89476075597574
  H           0.24765517036273     -2.62694413295774      0.17265185806977
  H          -1.25518140323213     -3.15007366154402     -0.72726340166130
  C          -0.20863059008413      2.95960716781704      0.78871730014994
  H          -0.93800722002791      2.39227507083674      1.37706504159793
  H          -0.71261059455981      3.72310480438318      0.18383210399722
  H           0.51571562269082      3.43480813060388      1.45036569222665
  N          -0.34156270794174      0.21134347733903      1.96746981675116
  O           1.09029657887140     -0.58636961247878     -3.15121296922674
  O           2.51689038050416      0.40511766386171     -1.88228438049147
