21
Coordinates from ORCA-job NEB_reactant E -40.979776615630
  C           1.44893339909021     -0.31369255876792     -0.43433094582625
  C           1.72574646856377     -1.47499106933975      0.18703592591528
  O           1.22715229161602     -0.17646100155499     -1.76683221787124
  H           1.38483660961336      0.58402449650235      0.16973352849108
  C           1.88532453543908     -1.42708544309374      1.59563632644277
  C           2.81390386987689     -1.96638885566219     -3.79856562247064
  C           2.82594762563626     -2.15547425542534     -2.48339904374464
  C           1.79143310950169     -2.91080770281425     -1.71900765703477
  O           1.87727833785837     -2.73718853109289     -0.32698740156331
  N           3.82976874220429     -1.19176122444508     -4.43937683449097
  H           2.06166383696258     -2.34043627339976     -4.47509915782706
  H           3.64456224936964     -1.73759774217214     -1.90768405620937
  H           1.94083203756014     -3.98759012503118     -1.86380135257179
  H           0.78961451800450     -2.65059120752510     -2.08530120149154
  C           1.30424262077696      1.14229632401053     -2.26634102615819
  H           0.95264230297907      1.09947514396269     -3.29527578784244
  H           2.33559141245956      1.50673361568209     -2.24813125058601
  H           0.67001772668645      1.82125696931065     -1.68967816914478
  N           2.01896828479343     -1.36892958494895      2.73213144150915
  O           4.68609937381390     -0.67836355589402     -3.75031725296427
  O           3.75374064719382     -1.08762741830100     -5.64520824456101
