21
Coordinates from ORCA-job NEB_product E -40.969960124560
  C           1.99812059566374     -1.06671540968487     -1.19975736136490
  C           2.91565748091707     -1.43483900239083     -0.01036985727893
  O           2.10911191880389      0.26109295568121     -1.63441363342679
  H           0.96387541764394     -1.30111163034022     -0.89538474057184
  C           3.63017495687591     -0.31355129595943      0.57053858281684
  C           2.38181177703623     -1.99581771145457     -2.36691534655041
  C           1.55501240501157     -1.79120070815420     -3.59421659347597
  C           0.81290488789540     -2.73950047835427     -4.13396561446527
  O           2.93128599056708     -2.54617022515236      0.45370134118650
  N           3.82406533024958     -1.72241522925104     -2.65693818677122
  H           2.33076367494414     -3.03528803874065     -2.01838766994493
  H           1.60075854746822     -0.79640192738866     -4.01222238601680
  H           0.76681057984791     -3.73456871445734     -3.72201909511936
  H           0.22246165527256     -2.55830532985977     -5.01433308307284
  C           1.28919003876485      1.18400417775256     -0.95282446275816
  H           1.47176370163109      2.14582889165411     -1.42573463646852
  H           1.54332243468348      1.24969354417742      0.10892592595594
  H           0.23138429352354      0.91578891494760     -1.05784413534076
  N           4.15869318733859      0.57494973173302      1.05916713350885
  O           4.19152217327518     -1.79206423136350     -3.79459700556914
  O           4.52160895258607     -1.47990828339422     -1.69840917527227
