20
Coordinates from ORCA-job NEB E -39.361910066470
  C           0.36940569990819      0.87380666549503     -0.31557940225952
  C          -0.87443346681294      0.51612383887008      0.24175614291990
  C           0.42792163540101      1.04031437998980     -1.81900208562894
  H           0.87824382577928      1.68922879175153      0.19576790222070
  C          -1.28830791945109      1.04442924757340      1.57642263234757
  C           1.43718087248151     -0.66638777503779     -0.02442820017438
  C           0.61576461498329     -1.71210871503455      0.41402640676555
  C          -0.59523830822679     -1.87519849113982     -0.34499979736810
  O          -1.46374021508182     -0.59811008282799     -0.10416237744272
  Br          2.91372863769454     -0.16285613647979      1.10364009007369
  H           1.78712708922375     -0.72283642274884     -1.04828718267195
  H           0.59602985628872     -1.96905586273139      1.46351741190543
  H          -1.25585673533746     -2.66963321342417     -0.01130554365398
  H          -0.46179693239586     -1.89528326562014     -1.42694023154915
  H          -0.06878603973238      0.22398180585493     -2.33717253091320
  H           1.45510054809429      1.12458314878199     -2.16530807097878
  H          -0.08614978513742      1.96631167802128     -2.07657845847888
  Br         -1.15666680232298      2.97710191127583      1.65631842057229
  Br         -3.10556091776686      0.50966922928328      1.96564405255665
  Br         -0.12396565758901      0.30591926814734      3.05667082175783
