20
Coordinates from ORCA-job NEB_product E -39.407378193440
  C           2.54040890692395     -0.99027731805421      1.00936862611483
  C           1.32867503818524     -1.06402445157892      1.90857626868954
  C           2.09330591324936     -0.72014195491786     -0.43200937450285
  H           3.21266125574197     -0.19218520290450      1.33893561167934
  C           1.17570308049311      0.04007569074494      2.95405151720794
  C           3.29854846953072     -2.32676612359330      1.06880968346039
  C           2.58623671280409     -3.47646681604974      0.44987451364302
  C           3.13154522834741     -4.24276751554855     -0.47737971808009
  O           0.45476190905061     -1.87522098488537      1.80657591024564
  Br          3.64164949839470     -2.77492089627724      2.98366994207802
  H           4.29104616123822     -2.19916606168317      0.63098004230010
  H           1.59175836558954     -3.67204963373264      0.82508904134008
  H           2.60045019273041     -5.07671881375168     -0.90078564746514
  H           4.12823992379573     -4.06861683758953     -0.85025192694145
  H           1.33629812271252     -1.44002061696047     -0.73395889163992
  H           2.94644911184599     -0.80936075179822     -1.10024226452373
  H           1.68339918686079      0.28239946307521     -0.52602043307661
  Br          0.58428371033904      1.58260436179510      1.88751748056742
  Br         -0.21604880742825     -0.43467380442220      4.20681705997918
  Br          2.77592801959485      0.54059826813236      3.91308255892429
