24
Coordinates from ORCA-job NEB E -49.224903959640
  C           0.42301522587605      0.90055656847344      0.64041506053657
  C          -0.62370512999268      0.08029697156483      1.05921506399564
  C           0.09008679214703      2.20721415641752     -0.03235797199063
  H           1.28933823571991      0.94966166747859      1.28887945355087
  O          -0.34874620987470     -0.78396105255125      2.06838248651603
  C           0.96492621130904     -0.32922308546538     -0.89160469943120
  C          -0.19718241723814     -0.40132222367135     -1.64366027470642
  C          -1.34585254930913     -0.97543949290745     -1.01433743199837
  O          -1.66837232813766     -0.09785424726506      0.31222166553772
  C           2.19790098124970      0.25751067154075     -1.52480657201550
  H           1.23104412985981     -1.15357227061749     -0.23822907989653
  H          -0.34117972895747      0.29507522440716     -2.45549112157215
  H          -1.19294097301909     -1.96158374388823     -0.58272241748459
  H          -2.27824099019724     -0.90446596173636     -1.56097838139723
  F           1.22957674939633      2.89051833005826     -0.35065131107284
  H          -0.46940563989841      2.85163597628990      0.65789026800362
  H          -0.48617459605158      2.07402485154133     -0.95342056033186
  C          -1.39584595897025     -1.62661353755760      2.52086764863751
  H          -2.09924055730034     -1.05508356626805      3.13220821291274
  H          -0.92057701087569     -2.39507134795246      3.12612824576582
  H          -1.93905695076548     -2.08243761251005      1.69222737467542
  F           1.94663090110392      1.23945200207789     -2.39263230182710
  F           3.08166241262140      0.71850248710879     -0.63259551459296
  F           2.85233940130465     -0.69782076456772     -2.22494784181457
