17
Coordinates from ORCA-job NEB E -38.252122217590
  C           0.69265129461244      0.46079765743176      1.01705646955331
  C          -0.59857334474477     -0.06879938686455      0.89314961608981
  F           0.76894634613535      1.80797864926907      1.17912915167225
  H           1.39886929840634     -0.02275268579470      1.68459884617060
  C          -0.80923302943446     -1.52137977266216      1.21139715328634
  C           1.39299283123703      0.36552905043674     -0.76634433805904
  C           0.28687690094910      0.29455066282684     -1.60693371480115
  C          -0.83443022816114      1.13812373924788     -1.22228595559751
  O          -1.41037088738371      0.41449049117593     -0.03528836705586
  H           2.10735611108214     -0.44677563129557     -0.81239362968578
  H           1.85731973786092      1.33689587176113     -0.64687056249290
  H           0.03487534909277     -0.65033969992565     -2.06864874025167
  H          -1.67365076253006      1.16554995917029     -1.91174157914558
  H          -0.55288207847121      2.14120941417177     -0.89592342236891
  Cl          0.04503747701522     -2.58950521465977      0.02033133772278
  Cl         -0.17695096743390     -1.90997818759370      2.81505829388755
  Cl         -2.52883404823206     -1.91559491669530      1.14570944107577
