17
Coordinates from ORCA-job NEB_product E -38.293217500990
  C           2.86271352164930     -0.59458146092383     -1.43656873531048
  C           1.55925788737765     -1.35764740364847     -1.28732416279496
  F           2.64544198856290      0.69798199039323     -1.02647876001922
  H           3.63907530665484     -1.00376490436376     -0.77916035378632
  C           1.71263164928724     -2.82350399870355     -0.82612014341778
  C           3.34266803849636     -0.57632324225376     -2.90291309954259
  C           2.26430174162938     -0.12329303046610     -3.84046920532946
  C           2.22850934576413      1.07968219231150     -4.38025099657444
  O           0.47661503126525     -0.88838613821037     -1.45500259781201
  H           3.68764899301242     -1.57630205153823     -3.16603490694735
  H           4.18550887644606      0.11613839199483     -2.94573814773615
  H           1.48523516782901     -0.84424799407738     -4.04620389939515
  H           1.43606335943696      1.38049876421048     -5.04259965055437
  H           2.98954705204277      1.81496459202124     -4.17732161275170
  Cl          3.06402050891346     -3.66175052907285     -1.59665793015230
  Cl          2.02437297902143     -2.70076687117394      0.93072465980770
  Cl          0.22058855261084     -3.72279830649903     -1.10748045768343
