17
Coordinates from ORCA-job NEB_reactant E -38.283671131700
  C           1.76549130306713     -0.16550674848438     -0.15956106664790
  C           1.71867789047066     -1.21353642269103     -0.98280502251237
  F           2.15442540124052      1.06829233417703     -0.53424263260119
  H           1.49838332969965     -0.20451462920316      0.88187868227827
  C           1.27429956386646     -2.57022087350792     -0.49832450591387
  C           3.73520541217630     -0.15898322025567     -5.13277278392677
  C           2.69717374110918     -0.54368368596163     -4.41646368844441
  C           2.46561915138894     -0.14179126822459     -2.99335448460287
  O           2.02164481819141     -1.30205665091900     -2.29238871945386
  H           3.85299882572304     -0.45324693194413     -6.16082502732473
  H           4.50347673767582      0.47678847296755     -4.72449634670695
  H           1.93239419879602     -1.18607661432174     -4.82825553734417
  H           1.68832458023476      0.63361443354857     -2.94803192794612
  H           3.38279136698482      0.25088823684975     -2.54189406956685
  Cl          2.59384617308498     -3.73716068666079     -0.77279468352981
  Cl          0.83930366676940     -2.61577501238356      1.20763086160144
  Cl         -0.14075616047909     -3.08333073298530     -1.45159904735786
