23
Coordinates from ORCA-job TS E -28.671370037250
  C          -0.47458967164571      0.03950128651170     -0.73897348647630
  C           0.86165282075632     -2.30058872302000      0.35031601403698
  C          -0.46898263537949     -2.24736170681779      0.12361644557375
  C          -1.12067684744745     -1.12480720765086     -0.43995958353075
  C           0.07776149144752      0.58254702934053      1.33132879439937
  C           0.83117708001290     -0.39785829128149      1.90895352711411
  H          -1.10120246353571     -3.02982845416331      0.52318624984642
  H          -2.20318885974198     -1.13426827484462     -0.45150167242878
  C          -1.21765665051678      1.22748153886831     -1.28508956254245
  H           1.29795404784787     -3.12323913719638      0.89220063896319
  H           0.58237001519799      0.01623627061213     -0.95892521169645
  H           1.56005736017196     -1.66862231979477     -0.16734033742199
  H          -0.95147551761456      0.70181202244941      1.62304229192382
  H           0.39874867183146     -1.12273400400871      2.58227229678268
  H           0.56468086035133      1.44765058773082      0.91621270074769
  C           2.23359191546187     -0.37274892201223      1.84394315707610
  C          -0.30067599567797      2.36923186018445     -1.70725084691649
  H          -1.94144340871577      1.58719019376745     -0.54884956858510
  H          -1.79300380722466      0.89910517837529     -2.15690216639512
  H           0.24956275387548      2.76880421727991     -0.85851377194318
  H          -0.88206180830981      3.17892933801388     -2.14211711049752
  H           0.41659299119350      2.02685049567576     -2.44998287343952
  N           3.38080765766170     -0.32328297801950      1.81033407540953
