22
Coordinates from ORCA-job NEB E -58.349592066540
  C           0.43463213411974      0.88947403860510      0.31352020779872
  C          -0.72099405797949      0.53423140391428      1.05397065952236
  N           0.28312762436628      2.18200901019486     -0.38630754761868
  H           1.36556850652172      0.90761696264529      0.87735519218747
  C          -0.61242119340249     -0.07140795061140      2.44017355153782
  C           0.51444926873409     -0.33573737211814     -1.11584687642854
  C          -0.63448692006380     -1.14064265957820     -1.03891479102890
  C          -1.86509347071168     -0.41503659491317     -0.95523782084778
  O          -1.84338670172623      0.33642664449893      0.45422373385521
  C           1.86347680483226     -1.00022904656861     -1.08670389742631
  H           0.45829702070755      0.41683109253411     -1.90546064806641
  H          -0.57322426963591     -2.10449736074240     -0.55065856148944
  H          -2.76696248127785     -1.01065255088635     -0.86788744121979
  H          -1.97072900730881      0.40968186835390     -1.65724727527545
  O          -0.52293457365842      2.27313345329832     -1.27647160555778
  O           0.97589886892620      3.06252521618231      0.04783150426796
  Cl         -0.89172759908775     -1.83729324448357      2.30855875376826
  Cl          0.94790696254983      0.20596167476085      3.21566911743183
  Cl         -1.89958391764025      0.62329254988374      3.45881052869143
  Br          3.30652499508646      0.32485035038178     -1.18615568646285
  Br          2.12890360813351     -2.08068737706090      0.51266082143050
  Br          2.02275839851504     -2.16985010829074     -2.65588191906962
