22
Coordinates from ORCA-job NEB_reactant E -58.387692738380
  C           1.57057962420317     -0.10160491017048     -0.11424064515309
  C           1.63678124091414     -1.43699615143382      0.06310798658932
  N           1.41130962780906      0.60451784385671     -1.33635690413216
  H           1.62718198775828      0.55172395596924      0.74277477244742
  C           1.68307284636035     -1.98540911182626      1.48374707140049
  C           3.57321439441058     -3.77206744628926     -3.54878570859198
  C           2.60307220313600     -3.57087343743567     -2.67122850128751
  C           2.24608770780875     -2.22761421688695     -2.12931742036904
  O           1.78435702457142     -2.42835150986804     -0.79822598002455
  C           3.94787981944900     -5.07116211214189     -4.14789201667471
  H           4.17604011218505     -2.94754730285827     -3.91112498803564
  H           1.99116213725232     -4.37850291947451     -2.29421646552966
  H           1.44910176762854     -1.77730925035058     -2.74317701618168
  H           3.10490168336382     -1.54527306624868     -2.13209301770498
  O           0.79514494619565      0.06694818135839     -2.23985890905366
  O           1.86594048000232      1.72520186484873     -1.38268004529203
  Cl          3.40987725996419     -2.06602929345715      1.95073606124495
  Cl          0.82025001326669     -0.96858244132697      2.64110941298065
  Cl          0.99605875177269     -3.61709031682155      1.53648472324356
  Br          5.84839628230771     -5.43270490518339     -3.76302761550227
  Br          2.91675447950522     -6.58659391341886     -3.52021259622206
  Br          3.73773561013503     -4.96497954084074     -6.10982219815137
