22
Coordinates from ORCA-job NEB_product E -58.390840216720
  C           2.77212233985429     -1.84049679773934     -0.85921823687994
  C           1.51055231954130     -2.42494777715769     -0.24289101908578
  N           2.52323313273519     -0.35437638317540     -1.02372102671450
  H           3.63074976224477     -1.93575013312057     -0.18681774309859
  C           1.65679251929166     -2.81654146485412      1.23938681610282
  C           3.12000640190109     -2.37441166192770     -2.27019902731123
  C           1.96781586762149     -2.27434945086134     -3.23203623218456
  C           2.00851925886133     -1.51963872307352     -4.31484912589654
  O           0.44471011649356     -2.42928733660330     -0.77811637995557
  C           3.64599064791678     -3.80874862340859     -2.21346752443875
  H           3.95148386808067     -1.75998188092707     -2.64922885772435
  H           1.09135972469714     -2.85737627727355     -2.99296780963839
  H           1.17204133216803     -1.46899671065806     -4.98751547340007
  H           2.86902423435453     -0.92311421301978     -4.57198942959157
  O           1.55567237808532     -0.02731676393045     -1.64478827611273
  O           3.34653496655516      0.36061676679532     -0.52439016660355
  Cl          3.13128371561206     -3.71675172790524      1.61489761103485
  Cl          1.71745812789965     -1.21227763807268      2.05268326018601
  Cl          0.24493351156373     -3.72118222271825      1.77656136322847
  Br          4.08861213714997     -4.39735309489571     -4.01868720936874
  Br          5.28971614805142     -3.91976458298458     -1.15351691638050
  Br          2.34688748932085     -5.05935330248837     -1.47222859616678
