23
Coordinates from ORCA-job NEB E -63.720459825690
  C          -0.10955118849410      0.82584975210696     -0.63804675349016
  C           0.73875727865294     -0.15746036498711     -1.22629780160589
  C           0.36223403193204      2.20252879264102     -0.27944080149961
  H          -0.99284799254522      0.92176104354855     -1.27014135142078
  C           2.22567606129423     -0.36303327480285     -0.89015782435450
  C          -1.13179520842167     -0.18458549413038      0.71543763739772
  C          -1.00715054694701     -1.53486187837711      0.29791652589696
  C          -1.25563827172489     -1.89424539563686     -1.01329329057297
  O           0.18995385928708     -1.11998385725573     -1.82505530808974
  C          -0.84868610598978      0.00101329698406      2.19756434841088
  H          -2.06005279385198      0.32064908256335      0.46193355804970
  H          -0.34707261138072     -2.16621036526809      0.87808023561057
  H          -2.00605500595043     -1.36503751234409     -1.58419472865624
  H          -1.08640455391622     -2.91317390947606     -1.32409889192105
  Br         -1.18127241012987      3.34468403826604      0.09946541306937
  Br          1.65678842313772      2.35482178347242      1.14225153021681
  Br          1.15842244585030      3.01361977064471     -1.91914761316612
  F           2.96635854474144      0.73548100870228     -1.06791164859116
  F           2.42271785291616     -0.76307441789770      0.37605525516922
  F           2.73517496518453     -1.31059735947497     -1.67411209107380
  Cl         -1.10087830393536      1.64232352734247      2.80352901930404
  Cl         -2.08260213614635     -1.02337491572167      3.03534794523368
  Cl          0.75392366643714     -0.56709335089923      2.70431663608306
