23
Coordinates from ORCA-job NEB_reactant E -63.774738179130
  C           1.36922255122735     -0.48434637160622     -0.06833482106684
  C           1.89386280858932     -1.56442771823367      0.52539111834993
  C           1.97672605972745      0.42547220329451     -1.06626477663075
  H           0.34422123029422     -0.23857276104152      0.17208681814132
  C           3.30348575423768     -2.11518988004926      0.32617421468651
  C          -1.16029782085236     -2.86117361148416      3.90145535275546
  C          -0.45015753360256     -3.11152620198582      2.81356908085210
  C          -0.05421085124846     -2.05972478753300      1.82619590831608
  O           1.27789764192660     -2.34256907399359      1.42501844218036
  C          -1.60748485931347     -3.87477404391680      4.89242690319706
  H          -1.48953260249792     -1.85932273448352      4.14189479934332
  H          -0.10995634932035     -4.10749711602500      2.57245482849228
  H          -0.11679987313897     -1.05770541797595      2.26731776510554
  H          -0.72053133874889     -2.11291950278807      0.95222531246648
  Br          0.87071511472355      2.03549979469178     -1.19820094365648
  Br          3.78464868778998      1.03305036398556     -0.63126886573570
  Br          1.98885019530368     -0.39356202530409     -2.87445608784958
  F           4.17871564405305     -1.53469350144950      1.15566466596383
  F           3.33587978177615     -3.42278604943189      0.57596859166517
  F           3.76282766666095     -1.95136200857722     -0.91619986755772
  Cl         -3.39743852112559     -3.87540994332964      4.94623624008799
  Cl         -1.06086729662487     -5.51615397631891      4.53498368742574
  Cl         -1.00017608983654     -3.41390563644402      6.50906163346790
