23
Coordinates from ORCA-job NEB E -42.265628235560
  C           0.69731348053561     -0.06045967081868     -0.03899603982244
  C          -0.26279176899112      0.02859152510037      0.97866717000790
  C           0.78791784245272      1.10876186610360     -0.99351023668797
  H           1.67427545408454     -0.43905285027946      0.25387652338000
  C          -0.06441981102070     -0.57056596177368      2.31784967611999
  C          -0.07234973423650     -1.49055779256753     -1.06451600435182
  C          -1.33176617575325     -1.00124156598465     -1.36569727156208
  C          -2.20156204003414     -0.67942392091611     -0.25112340444625
  O          -1.51010591056633      0.33725965235924      0.65965497902782
  I           1.24234213577124     -1.97619712509582     -2.66743939186177
  H           0.02943261035564     -2.24936604406351     -0.29944152483882
  H          -1.51763832222490     -0.52882778561831     -2.31797086564881
  H          -2.40192597710659     -1.52528129544073      0.41045560685918
  H          -3.12625531875106     -0.18416925656841     -0.53406917484383
  C           1.59308231634183      2.22217657693547     -0.32662799264576
  H          -0.21362040078793      1.47126137781662     -1.23020240586109
  H           1.28624934662641      0.81682233106931     -1.91794598563323
  H           1.10110331849058      2.55642834842458      0.58422688072861
  H           1.68282264139260      3.06830427098487     -1.00212815511664
  H           2.59205189417115      1.87596105952842     -0.07109487379577
  Br          1.70266713430644     -0.23792648136508      3.03368053861066
  Br         -1.39884501189426      0.09127391872967      3.55178649852132
  Br         -0.28797770316199     -2.63377117656018      2.29056545386081
