23
Coordinates from ORCA-job NEB_reactant E -42.287178783380
  C           1.78003560344674     -0.24408899117154      0.02808503703029
  C           1.53651767404666     -1.55184822889750      0.04856663899423
  C           1.88992810523797      0.56936966189895     -1.21596657221649
  H           1.94288071876491      0.28351570888619      0.95763735226334
  C           1.43598281827602     -2.33039565713979      1.33289390072387
  C          -0.39563744786856     -4.62822862976915     -2.70282726957477
  C           0.08058253830897     -3.39877752773580     -2.71210874390210
  C           0.02939726776261     -2.51383883036962     -1.50781459428736
  O           1.37957202232940     -2.30407022151437     -1.08409219888822
  I          -0.32649722228650     -5.89411647445440     -4.37153401086324
  H          -0.87356977104947     -5.07460099605334     -1.84685158310068
  H           0.57534076013338     -2.98437375758642     -3.57743761639237
  H          -0.56106851255846     -2.98696322712077     -0.71343252091154
  H          -0.42657424798199     -1.54595335666462     -1.75959438139797
  C           3.18274565610447      1.38273369057211     -1.21944165408002
  H           1.03717440881940      1.25431189488641     -1.25967991470187
  H           1.85628443501476     -0.08415932053377     -2.08868150248672
  H           3.21933969759805      2.04830834421178     -0.36017219512630
  H           3.24379248881805      1.98158411373710     -2.12418128563446
  H           4.04581454927072      0.72253161552591     -1.18267489587677
  Br          2.78563882039909     -1.80744730125909      2.63605257619578
  Br         -0.33922735445058     -2.02679526153727      2.17877659892386
  Br          1.62604699186435     -4.22879724791101      0.99577883530950
