16
Coordinates from ORCA-job NEB E -25.767861829060
  C           1.14665163198846      0.58137627901866     -0.09063123101517
  C           0.15583329458262      1.21164309717161      0.67874252174890
  N           1.15140159582947      0.68583317438973     -1.47743317530346
  H           2.13463237770122      0.49071141760339      0.34659749444339
  Br          0.54694073027578      1.23015959452283      2.62306155107499
  C           0.38051420469686     -1.26827372781167      0.16782790983736
  C          -0.91197806854900     -1.10704120651179     -0.29784594590127
  C          -1.79943496675039     -0.29311680340766      0.44333264855030
  O          -1.06297133865766      1.23705682319487      0.35625839294889
  H           1.08431950940790     -1.82383351177258     -0.43258036211908
  H           0.54868571849346     -1.33905168479726      1.23358556652771
  H          -1.10535959048184     -1.24348936359274     -1.35231736152241
  H          -1.80011630283053     -0.40757966843427      1.52305985007952
  H          -2.77741743752243     -0.08908881112121      0.02985651929045
  H           1.99759056427386      1.04672544069337     -1.88625182720749
  H           0.31070807754223      1.08796895085473     -1.86526255143262
