16
Coordinates from ORCA-job NEB_product E -25.810622623750
  C           1.90746846933552     -1.74331705103437      0.27728461995716
  C           1.04368290887492     -0.65583433020958      0.87155548802664
  N           2.01062980859098     -1.62991778237762     -1.15500137978733
  H           2.91334415531914     -1.65187697714293      0.70659755296200
  Br          1.16579026989361     -0.58770168409070      2.83821572392939
  C           1.32672698440472     -3.11894655063607      0.67938040166978
  C          -0.13536512050898     -3.22119911588240      0.36550208143030
  C          -1.08125723437171     -3.27441071947851      1.28394367038909
  O           0.35166478186975      0.12167809198336      0.31559734531563
  H           1.88456896014683     -3.87023652969667      0.11792039771278
  H           1.48995046889257     -3.27847688345342      1.74559614547376
  H          -0.39212723797675     -3.24340105600836     -0.68540941146426
  H          -0.85197522957799     -3.25897235854589      2.33719703777883
  H          -2.12386080001508     -3.33945497368604      1.02463343520751
  H           2.43057868709050     -0.74907911737391     -1.42878446171230
  H           1.09758012803197     -1.69025296236687     -1.59152864688899
