16
Coordinates from ORCA-job NEB_reactant E -25.789146714680
  C           2.00783577732702     -0.10130133548203      0.17717348098086
  C           1.60058114311954     -1.10156348080931      0.96019942212819
  N           2.18114797483255     -0.21838700359914     -1.18761165561627
  H           2.30339704011238      0.83928212507976      0.61424810256680
  Br          1.57116646388213     -0.82208620158225      2.87164254787542
  C          -0.59057667886874     -5.25423688673602      1.01160677572602
  C          -0.12167581720413     -4.22920752000454      0.32718869522933
  C           0.02112871727215     -2.84889812482512      0.88406527063873
  O           1.30832087565337     -2.34733542483044      0.52679313918105
  H          -0.69321855449466     -6.23008685225681      0.56998775669184
  H          -0.90032245539816     -5.15668250688098      2.03901003214062
  H           0.19723762451543     -4.33612082668202     -0.70005347634380
  H          -0.08720315308973     -2.85747581825123      1.97614497872311
  H          -0.75648173838489     -2.19040808595548      0.46313928530469
  H           2.01594222176370      0.61837121877683     -1.72401713578193
  H           1.77802055896206     -1.05366327596124     -1.58661721944466
