20
Coordinates from ORCA-job NEB E -28.653864956020
  C          -0.14894476451117     -1.18490139024633     -0.88057111242163
  C          -0.97601354280178     -0.18921541155409     -0.35874900282549
  Br         -0.68636572625309     -3.02811002607263     -0.70096222633226
  H           0.27965577560741     -1.03693729494595     -1.86489087590675
  C          -1.03349701219972      1.17994645635645     -1.00319460005966
  C           1.31972267690365     -1.07999006620892      0.39776811874859
  C           0.67039145127867     -1.23863409917601      1.61511849755643
  C          -0.30794614087715     -0.26223361186762      1.98078246116186
  O          -1.44617605515756     -0.34076152115895      0.85183003747007
  H           1.97449490396736     -1.87440494655216      0.06462347813253
  H           1.66666899244690     -0.09442844409169      0.12135910321077
  H           0.53672132543214     -2.24010339816943      1.99950598083889
  H           0.00360492078809      0.77813587976208      1.91506187668828
  H          -0.87188961258230     -0.46254205175175      2.88435328699063
  C           0.30482741795733      1.91195662811702     -1.12650768670535
  H          -1.72176702895449      1.78264533511842     -0.40764112073957
  H          -1.46328282902073      1.06637161226331     -2.00213951478657
  H           0.74709002030481      2.08930532405827     -0.14883607404458
  H           0.14506216323555      2.87675179770015     -1.60233975171956
  H           1.00764306443609      1.34714922841981     -1.73457087525664
