20
Coordinates from ORCA-job NEB_product E -28.703884227020
  C           2.69533131192961      0.53281701631855      1.26102333270286
  C           1.61457230225017      1.58951687132646      1.44847181905478
  Br          1.78275690351043     -0.98276490883802      0.38505945889319
  H           3.42786668217715      0.86844950760493      0.52253643917027
  C           1.20861540111158      2.30406857150273      0.18047837833696
  C           3.38020447679618      0.08886593806014      2.54600152166435
  C           2.43767875970442     -0.45778033552171      3.57454838082522
  C           2.42792794364960     -0.09029158850619      4.84035706171705
  O           1.15151559662016      1.84713845746931      2.52644896189281
  H           4.11958871529502     -0.68014179551359      2.29466430136217
  H           3.91223345727436      0.95234216199846      2.95498778546604
  H           1.75622315236060     -1.22041830078413      3.22096530383916
  H           3.09431072570548      0.66732170971346      5.21874151374116
  H           1.74608717724632     -0.52457673043228      5.55000707758832
  C           2.08119194802267      3.55295208518315      0.01966934373529
  H           0.16450181935235      2.60678015247518      0.27183434509575
  H           1.31995587180779      1.65731045945317     -0.69034881969319
  H           1.97753494080645      4.19801897546831      0.88892284520949
  H           1.77311484324728      4.10710168656878     -0.86305664260786
  H           3.13058797113238      3.28619006645328     -0.09081240799380
