20
Coordinates from ORCA-job NEB_reactant E -28.687945519700
  C           2.53141019089913      0.73403541266300      0.28972982751082
  C           1.94139520270240      1.48828199791746      1.21484498467021
  Br          4.02627672127282     -0.43959389555201      0.41413870576748
  H           2.16555954865082      0.76804337591818     -0.72193152869564
  C           0.81327598179913      2.39910316449608      0.77659476285322
  C           3.33401218091398     -1.59866837261051      3.60773808710226
  C           2.56515553361634     -0.53586493223014      3.47512452964891
  C           3.07821376282403      0.85934736510699      3.26546603144121
  O           2.17059013096284      1.66671594731006      2.53298407972550
  H           2.92199558760046     -2.57736581386113      3.78040664879261
  H           4.40721185507734     -1.53358866852011      3.54326246962615
  H           1.48702952758019     -0.61004979361597      3.53244805962803
  H           4.07535920011866      0.85855010922791      2.81621533922713
  H           3.14219676935653      1.36801597094018      4.23559724022551
  C           1.34776580822351      3.79134994628313      0.44310743605394
  H           0.10235575977040      2.47257223455980      1.60046625859385
  H           0.30570042799898      1.97763936268677     -0.09061581317182
  H           1.85276331396755      4.21581068039622      1.30689391887595
  H           0.52993783748662      4.44930554831092      0.16036634301717
  H           2.05449465917825      3.74006036057315     -0.38183738089251
