19
Coordinates from ORCA-job R E -37.728358806050
  C          -1.34309917371473      0.17120077381977     -2.97905054004464
  C           0.02460071690238     -2.39511635438163     -2.19824856299625
  C          -1.18476908828899     -1.99943229910484     -1.81520817255953
  C          -1.89301102568842     -0.82360829808013     -2.28748034333202
  C          -0.91435075468388      1.37889894123505      0.07496757954514
  C          -0.21096642842530      0.42104522127215      0.64730501369699
  H          -1.73185981922048     -2.59389282520335     -1.09511325201483
  H          -2.94231362237501     -0.76744991693143     -2.03172002772022
  Cl         -2.24638912345376      1.54004600395696     -3.48965259514462
  H           0.47926951708953     -3.27931351544336     -1.78774009810209
  H          -0.30312186062588      0.21378692274640     -3.25772142376897
  H           0.60327215727034     -1.85401801580669     -2.92565247618567
  H          -1.90344407192198      1.62613802926123      0.41688355471091
  H          -0.56211344945175     -0.16291792182007      1.48380681938897
  H          -0.53049818541349      1.94527784361467     -0.75672525239216
  C           1.17665085205884      0.07158198843411      0.20537691092150
  F           1.43245861613883     -1.23998449056886      0.33189032827854
  F           1.42613442755049      0.39061603640102     -1.07276646252898
  F           2.11371031625326      0.70484187659900      0.93945900024794
