19
Coordinates from ORCA-job TS E -37.717305871950
  C          -1.00958105472054      0.72473460725287     -1.47888407858768
  C           0.34703460629985     -1.53708740532500     -0.35249292846300
  C          -0.98387553011006     -1.53867188744194     -0.61311991561190
  C          -1.65275976836544     -0.43811943765166     -1.19114602541483
  C          -0.38577301440090      1.22944421090387      0.66760964662043
  C           0.37510920728191      0.21807157601313      1.16151698017793
  H          -1.60198599655186     -2.33024595944611     -0.21359213741115
  H          -2.73257829015445     -0.45937997532797     -1.22311905808834
  Cl         -1.89029687719783      2.09887713111363     -2.02517421445210
  H           0.79500650863106     -2.35317762712824      0.18995763065250
  H           0.04216727051043      0.78354808517322     -1.70304241552967
  H           1.02741567048711     -0.93160226454389     -0.92247950244739
  H          -1.41966677648116      1.31294869652072      0.94576960833431
  H          -0.00207336772840     -0.49539638963323      1.87405769416844
  H           0.07760167471319      2.10348019317973      0.24454206073204
  C           1.86465511162079      0.35595486511053      1.15260594682512
  F           2.51232828984021     -0.79490690143120      1.38855773388032
  F           2.34574379543408      0.83851316193398     -0.00725016659282
  F           2.29152854089202      1.21301532072757      2.10568314120779
