69
Coordinates from ORCA-job A3R E -97.878786676000
  Ru          2.19317665134684      3.32154981933638     -0.26921995824761
  H           0.81463464061912      2.11627458897856     -0.34936288001879
  N           2.49245861004022      2.23875552665832      1.50533758149070
  C           2.86454762313551      0.92096586006882      1.37004913457728
  C           2.15723778495862      2.71702177489592      2.70972049652137
  C           2.82131234705444      0.07429561217238      2.51616711081244
  C           2.12933392293146      1.93225150543198      3.84383686032312
  C           2.46108894672267      0.57457452746116      3.73070794718582
  H           3.08987529230294     -0.96384381622122      2.39181579197709
  H           1.85640158918751      2.35960464757220      4.79440449916159
  H           2.43339619887822     -0.06015564487203      4.60424318826376
  P           3.60845096472974      1.67123463042408     -1.09482598202936
  C           3.29370636789228      0.91463985989797     -2.80651011301624
  C           5.48183935419658      2.02303745044008     -0.89604971128904
  P           1.10704617664107      4.70870460791939      1.17430179366394
  O           1.42927063936609      6.29227345345312      1.10411584158384
  O          -0.43342857273155      4.82226812575367      1.63075384653488
  C           3.21382833002343      0.43208160408834      0.10817698859934
  H           1.26207893758275     -0.04761685928433     -0.14421457619834
  H           3.62092081558197     -0.56815933091800      0.03257506336249
  C           1.81617395894748      4.17659696034730      2.79027962964277
  H           1.12669237747367      4.39275217160628      3.60824578829060
  H           2.73548291120456      4.75537716049801      2.93699514893769
  C           1.90494710306599      4.25515923253439     -1.82905149662249
  O           1.75338749708612      4.90341012448457     -2.77425547286178
  H           3.38429634174520      4.23902110373081      0.00518272806551
  C           3.64166852471836     -0.57127299488709     -2.86430603930388
  C           1.79734016229362      1.06911269473525     -3.09601755922811
  C           4.04728237409536      1.69941885596313     -3.87877713736654
  H           3.01301557021818     -1.13678722017605     -2.18040550168430
  H           3.45878428409645     -0.94349225508667     -3.87211568035137
  H           4.68222215985339     -0.75872613874300     -2.61926023731770
  H           1.49170249451958      2.11529117139396     -3.02534479924195
  H           1.58252282057341      0.72811961657168     -4.10843165789136
  H           1.19466708433663      0.47285905478223     -2.41670029197856
  H           3.88237727269984      2.76785651358682     -3.74353709562615
  H           5.11369970474795      1.49534460816527     -3.85919088007104
  H           3.67634837576831      1.42059720729555     -4.86504275886690
  C           5.67984229602196      2.28266118995579      0.60035097615275
  C           6.36567568420759      0.84120070907610     -1.28783938400882
  C           5.87871873022833      3.28919890245999     -1.65497965223382
  H           5.47318371623410      1.38897797615724      1.18632456914598
  H           6.70858377516161      2.58434760054574      0.79294014575711
  H           5.01941184723291      3.08193830623653      0.93800695909655
  H           6.37437868401014      0.67270431382946     -2.36115891872755
  H           7.39140405632818      1.03886188707474     -0.97608833806031
  H           6.03310957902382     -0.06674598847064     -0.78715131666910
  H           6.01214595411196      3.10739891089392     -2.71593901758055
  H           5.11086094298476      4.05323676885819     -1.52404775282857
  H           6.81878991964663      3.67512216704669     -1.26222844548023
  H          -0.98812966654726      5.25632459173548      0.97780250311998
  H           2.26486700930479      6.46214707032137      0.66148255550147
  C          -0.06465019209194      1.38327601075403     -0.22637095832294
  O           0.35566406688939      0.07876333846188     -0.50920094525307
  C          -1.13782463675731      1.79955214465390     -1.20407167866979
  C          -1.28368674488478      3.12497981585612     -1.58632072478789
  C          -2.29831335179583      3.50005869242826     -2.44748595343586
  C          -3.17722838403622      2.54869105754251     -2.93748789656033
  C          -3.03423617870745      1.22372467624643     -2.56329425510648
  C          -2.02223338214853      0.84996985484485     -1.69776078558939
  C          -0.62090666562121      1.46088158287467      1.20182186306787
  H          -0.58271455257092      3.87088919746263     -1.22094454268689
  H          -2.39691672381731      4.53399323310138     -2.74401483643982
  H          -3.96688054100632      2.84002499147461     -3.61400010588322
  H          -3.71331294117583      0.47694225773101     -2.94737307292335
  H          -1.89699606139496     -0.18112252729688     -1.40639269998488
  H          -1.50890882709830      0.83304408476967      1.25675670571103
  H          -0.89297664658291      2.47787612072174      1.46989927660776
  H           0.10536159694688      1.08156525259330      1.91847611728970
