69
Coordinates from ORCA-job TSA2R_3R E -97.872550410040
  Ru         -1.21811900314225      0.49679905338449      0.28955232693559
  H          -0.59527328896093     -1.13823329598807      0.16225479942337
  N          -0.07230011823756      0.45225524526960      2.04890456534459
  C           1.27325493780024      0.34177889802731      1.90832851139762
  C          -0.62692104073709      0.38765108284379      3.26260245186494
  C           2.08185004334318      0.14833380243722      3.04362722078072
  C           0.12896646807667      0.20053255190773      4.40879672750310
  C           1.51006578341826      0.07664110458988      4.29010031743749
  H           3.14803645991617      0.04934031382778      2.91192366380731
  H          -0.35392562874680      0.15083686097849      5.37103608882443
  H           2.11971528286415     -0.07444518002315      5.16824101119882
  P           0.79171348503158      1.26108387716390     -0.58707228621020
  C           1.37752428416624      0.74093472565328     -2.31322083352592
  C           1.22273453115700      3.10066548010083     -0.29510987714426
  P          -2.84904393222955     -0.08081335384334      1.76254491012752
  O          -4.27497070328436      0.67403847658869      1.67440212626797
  O          -3.38146921935691     -1.49006394185017      2.32116224720544
  C           1.82384929502437      0.32975834705455      0.57297784345486
  H           1.63318751339659     -0.98095889269420      0.20258422176646
  H           2.89899624104081      0.48934133833468      0.52158890734251
  C          -2.11515911868853      0.53503023451128      3.34291852579233
  H          -2.53464469005563      0.00893698474855      4.20228925114921
  H          -2.37225973694879      1.59815751699291      3.41403573191872
  C          -2.24572781844523      0.52823119318877     -1.23784144367368
  O          -2.95286325312664      0.59997495351528     -2.14883376176047
  H          -1.69283980054799      1.93596501150483      0.59145555365660
  C           2.88075651629121      0.47458757619483     -2.36897499680665
  C           0.64981386460445     -0.56175335086331     -2.65565576955119
  C           0.95750246016376      1.78335468583130     -3.34938047601097
  H           3.13626166769814     -0.37575900827497     -1.74180083473362
  H           3.15929363149405      0.22991725827239     -3.39356773195398
  H           3.46725060491727      1.33351316890524     -2.05834529710547
  H          -0.43254748617297     -0.43113623032350     -2.60794194314851
  H           0.90605912168012     -0.86923156732276     -3.66872328037876
  H           0.94530543324784     -1.36348010690888     -1.98336611934175
  H          -0.09146837736733      2.04451172749610     -3.21118414440510
  H           1.56303314290969      2.68367363837214     -3.29706078268608
  H           1.07293690325522      1.36738636430140     -4.34998379255801
  C           1.07118843696433      3.34371424578786      1.20943450568790
  C           2.64947732126202      3.47448195198994     -0.69011841576400
  C           0.20058108432759      3.98052083866050     -1.01649420064944
  H           1.82076486224443      2.79939291162506      1.78116217702833
  H           1.19229331103631      4.40494554696015      1.42439219222412
  H           0.07931805504088      3.04171229902376      1.54574333312194
  H           2.80079985280487      3.43693589037608     -1.76488052612268
  H           2.85522762047713      4.49401081820788     -0.36359199351287
  H           3.37100407481683      2.81814803646922     -0.20641629886102
  H           0.40868584549380      4.06562625660152     -2.07742253586610
  H          -0.79892394416219      3.56252497564882     -0.88779535939551
  H           0.21029012325539      4.98420644877432     -0.59328885761038
  H          -3.87757179248270     -1.99904818733220      1.67480981350851
  H          -4.21195985126843      1.49255887032007      1.17556369136821
  C          -0.07271341601741     -2.22934927003523      0.21693671266172
  O           1.22766010628445     -2.14180732268618     -0.10690163372217
  C          -0.86952845496447     -3.08839899360129     -0.74488531604080
  C          -2.21281305255038     -2.85827526188698     -1.00216065908057
  C          -2.91993919253108     -3.69342995412163     -1.84721085195587
  C          -2.28737782130710     -4.76985930570327     -2.44654475792353
  C          -0.94520270024048     -5.00175117200293     -2.20007430689925
  C          -0.24073306572914     -4.16718772759563     -1.35208450343111
  C          -0.28495810651189     -2.77122877056610      1.64528115065526
  H          -2.70877384793032     -1.99922208901974     -0.55621239609939
  H          -3.96408110052073     -3.49879659509788     -2.04634528463231
  H          -2.83893899825792     -5.41996962631490     -3.10979271757883
  H          -0.44452319453189     -5.83505296002077     -2.67116489008241
  H           0.80894017943248     -4.32703829485748     -1.15672420478529
  H           0.06715286061485     -3.80168645433169      1.66407414546967
  H          -1.33103105968051     -2.75133352838644      1.93871713745351
  H           0.30711140918282     -2.20270012078978      2.36073121862936
