20
Coordinates from ORCA-job NEB_product E -41.830782906780
  C           2.68704533046249     -1.17269277445437     -0.49794621291042
  C           1.32406933349240     -1.60636200262869     -0.01931824885277
  C           2.55357167264654      0.20059278549432     -1.16745353961084
  H           3.37318458307527     -1.10113094766141      0.35229064992520
  C           1.27400517941507     -2.68312288653737      1.09274788399210
  C           3.29781694994750     -2.16512119432420     -1.52088614729024
  C           2.31058233368539     -2.64140071868326     -2.53415147518721
  C           2.40220367503941     -2.35688937188610     -3.82020972736883
  O           0.29206221233860     -1.16285068932871     -0.44346530017979
  Cl          3.99794789909104     -3.58904168253491     -0.67401974543190
  H           4.14119178084768     -1.66211455112753     -2.00186516322169
  H           1.51011997260638     -3.26041176916059     -2.15343650881114
  H           1.67963405003483     -2.71810894221516     -4.53059967518614
  H           3.20154233591639     -1.74925631772507     -4.21230673190487
  F           3.79249862767193      0.68250853249562     -1.49141144350005
  H           2.09234214039274      0.92473387826657     -0.48965942926109
  H           1.97520916128279      0.13117137901069     -2.09336976130203
  F           1.19895943203280     -3.91155963674242      0.53513449466353
  F           2.37005535449773     -2.65913650532175      1.87726640214029
  H           0.38375797552301     -2.54390658493565      1.72695967929787
