20
Coordinates from ORCA-job NEB_reactant E -41.820377946060
  C           1.55408914213192     -0.14436121522634     -0.06376781450867
  C           1.57084423716995     -1.47472240873533      0.07533371186181
  C           1.83204454209936      0.68802733588840     -1.27975602054936
  H           1.34859498218765      0.42560025478236      0.82866470416541
  C           1.20839217943372     -2.06646301299164      1.43195355063671
  C           4.12804427848840     -3.67874666405983     -3.01246565375378
  C           2.89001318382883     -3.56055320538117     -2.56419514513344
  C           2.32250016404048     -2.25931873587504     -2.08510236565419
  O           1.81883806746364     -2.48112552511112     -0.77375356227672
  Cl          4.77232352247327     -5.16135785795895     -3.57949491932524
  H           4.81946809216056     -2.85149384403443     -3.07483861686253
  H           2.22865709098527     -4.41107291754797     -2.50114250589760
  H           1.49571847736455     -1.96028172433834     -2.74389546398339
  H           3.09596840264036     -1.48777772497976     -2.07980664906026
  F           3.18955208097662      0.75495319965098     -1.54918907816578
  H           1.51038104645585      1.71894772564432     -1.11022847412106
  H           1.36067246928701      0.30130267198873     -2.18726373003838
  F          -0.01078014497315     -2.65693590784025      1.37357951421042
  F           2.08217727191309     -3.02751243071502      1.79419887659210
  H           1.17670091387260     -1.31280801315960      2.23256964186396
