23
Coordinates from ORCA-job NEB E -39.981299236060
  C           0.45283432827054     -0.52833166808878     -0.60382411377872
  C          -0.00790865484346      1.00434388985460      1.30909525084123
  N           0.92159435262362      0.07597912499526     -1.69558803649390
  H           0.21532886863827      0.24187353988024      0.21944735324750
  C           0.78465846894504      2.18547405132336      1.06415452911642
  C          -0.21800320686979     -1.85910240845877     -0.50573610894636
  C          -1.31253440782122     -2.04158117568830     -1.53106094751948
  C          -2.54210634680432     -2.40768861770847     -1.22803527819302
  O          -0.67938390627360      0.49132799046538      2.10759431545083
  C           0.78322798116785     -2.90070248545649     -0.67784953542900
  H          -0.61864204816772     -1.96340189822402      0.51195543686803
  H          -0.99898417488249     -1.85459200927395     -2.54829889010154
  H          -2.85016954676714     -2.60821826105637     -0.21364195326304
  H          -3.29909242540932     -2.51440543849051     -1.98569418412714
  O           1.13618039950936      1.30704452896127     -1.64498143905961
  O           1.17370928527310     -0.63523665560123     -2.67282661631464
  C           0.81484114225277      3.11813738975626      2.27307032038199
  H           0.40137283907882      2.67929216713444      0.16009707172371
  H           1.79206978941856      1.87647985246511      0.75769841987408
  H          -0.18446066905619      3.46056018827108      2.52766057305299
  H           1.42969276300662      3.98054975611477      2.03404324728217
  H           1.24034529012910      2.61559184404738      3.13787491727235
  N           1.56542987858160     -3.72339370522224     -0.79515433188486
