23
Coordinates from ORCA-job NEB_product E -40.089554310110
  C           1.43455215061985     -1.76985880104847      1.36396964134230
  C           2.45851137188422     -1.45626007975853      2.49415732941096
  N           2.04793375024687     -1.39781968114174      0.06296620678037
  H           0.57108168129785     -1.10939239191821      1.49772812827974
  C           2.70415470544825      0.00416517540253      2.73327116818951
  C           1.00560154755845     -3.24424140773558      1.40168189632350
  C          -0.06729176984178     -3.53800924633612      0.38220586355189
  C          -1.29659743280521     -3.88574148235120      0.70867409334108
  O           2.94028779949664     -2.34671221470321      3.13218406485492
  C           2.12761594547958     -4.14357034961513      1.18575630882662
  H           0.62515195590065     -3.44755481374609      2.41102094116691
  H           0.24136156538395     -3.46176378803253     -0.65080369820560
  H          -1.61218247960690     -3.98369545335743      1.73512018644917
  H          -2.04055226868188     -4.09232835285530     -0.04057572700192
  O           2.08883787593991     -0.21358114634170     -0.17871616259060
  O           2.46553263193099     -2.27428865981723     -0.64405259699540
  C           1.62230411390992      0.55661609806415      3.66939043757774
  H           2.69352891785012      0.55992999393724      1.79486141183055
  H           3.67867279424034      0.11078000405611      3.21137503936165
  H           0.63996101329703      0.52004124272071      3.20401708681305
  H           1.84649948914503      1.59235165002317      3.90743647799221
  H           1.59358191208568     -0.01322564972343      4.59516137459418
  N           2.96125272922045     -4.90654064572201      1.02767052810716
