20
Coordinates from ORCA-job NEB E -48.934040024510
  C           0.41707472926017      0.73252109787193      0.42469341985484
  C          -1.00868028115712      0.55540412289787      0.71638067590836
  I           0.58296871446231      2.35085682448234     -1.09174533451715
  H           0.95628789769877      1.14000227212052      1.27686547981211
  C          -1.61165734116633      1.24978535368259      1.90278497534196
  C           0.95110686378698     -0.63338975576165     -0.00368507731414
  C          -0.23587542640507     -1.36176013057074     -0.51566290726076
  C          -1.35564097836105     -0.62423010968776     -1.15403374917087
  O          -1.91126840938096      0.29057305669656     -0.25171268532853
  C           2.18640061851742     -0.73295385325814     -0.93781512470308
  H           1.29577860573453     -1.11213889151580      0.92383909898747
  H          -0.06473110266965     -2.36841396236972     -0.86713992040478
  H          -2.16613518727485     -1.28196500815475     -1.47396747154526
  H          -0.98302812833857     -0.08248651363328     -2.04245471243966
  F          -1.49596715304058      0.46794429701766      3.01394537391863
  F          -0.96602248085257      2.40023852284280      2.21157791546709
  H          -2.67908024230403      1.46723854044242      1.75174791000916
  Cl          2.84447069810968     -2.39031629424116     -0.80328056831143
  Cl          1.78872707474165     -0.47075650471774     -2.64431312766624
  Cl          3.45527152863927      0.40384693585605     -0.43602417063770
