20
Coordinates from ORCA-job NEB_reactant E -48.981421377670
  C           2.19360423447167     -0.50017533968105     -0.11436842704458
  C           1.53655772339913     -1.48538976354535      0.49314361979772
  I           3.02445220350440     -0.38011790731403     -2.03822821129524
  H           2.32580502313906      0.42917679297084      0.41037626612728
  C           1.01034021599010     -1.20962066591566      1.89960760916171
  C           4.07766664426312     -3.81818558324227     -1.74665610195185
  C           3.21728866451400     -3.68261933733874     -0.75030298909277
  C           1.75503752762955     -3.42129378461530     -0.94354674579495
  O           1.18785289932250     -2.74079555122208      0.15866100294899
  C           5.53169872788788     -4.08025396931409     -1.60263924966033
  H           3.75959220478113     -3.73243331024012     -2.77679324480364
  H           3.53155305761365     -3.76659052171913      0.28092033163780
  H           1.21733606852379     -4.37658029254289     -0.95377594685123
  H           1.55442351330313     -2.90434751341529     -1.88679572111028
  F          -0.32785349511539     -1.37892006660529      1.94712031539118
  F           1.54370726817301     -2.09165937335977      2.77411524991507
  H           1.23826410540364     -0.19502606305728      2.25771915260407
  Cl          5.94018129393117     -5.61136292917964     -2.43419466608321
  Cl          6.43857436425112     -2.75621788777172     -2.39396732510726
  Cl          6.07421775501335     -4.19888693289114      0.07580508121151
