20
Coordinates from ORCA-job NEB_product E -48.991147183780
  C           3.14277876075571     -2.11090497070513      0.18717129538966
  C           1.72948432492489     -2.14982672871230      0.69445422419439
  I           3.25529300479597     -0.09087854406640     -0.59630065760325
  H           3.85939401943489     -2.13762050105555      1.00878535058854
  C           1.46290710408181     -1.33803539505220      1.98274379026771
  C           3.42143508389870     -3.20913925047048     -0.84433631705666
  C           3.04323261660336     -2.81918588319522     -2.25026783407121
  C           1.89865807485827     -3.15586484023764     -2.81252274079263
  O           0.83178770098221     -2.74286407037559      0.16783679857475
  C           4.88153965109907     -3.65809218240637     -0.79049368574081
  H           2.80785448684056     -4.07113841309474     -0.55112555166111
  H           3.77587870175226     -2.22719009762458     -2.78023518325058
  H           1.15898729549711     -3.74348740589851     -2.29516802353855
  H           1.65337443702784     -2.83786092676683     -3.81055189127844
  F           0.88507225418758     -2.14827681635527      2.89334407121738
  F           2.59948783883562     -0.87262580186445      2.54295419282531
  H           0.78614421760605     -0.48854894642778      1.79833241559213
  Cl          5.14959714865510     -4.93587804160202     -1.99941229116099
  Cl          5.99622580745357     -2.31693276244416     -1.12012741547826
  Cl          5.27136747070942     -4.32754842164476      0.82181945298264
