16
Coordinates from ORCA-job R E -24.716929735390
  C          -1.19276246078935     -0.10139833009448     -2.83526013528600
  C           0.02463889688475     -2.76871143550650     -2.15357694329411
  C          -1.17479244731807     -2.33474030796178     -1.77730330718891
  C          -1.76635309331277     -1.05056675117728     -2.10065904495366
  C          -0.90610737654690      1.97545150040767      0.11413645952568
  C          -0.43604365625614      0.77293407706136      0.35750306726840
  H          -1.79614522532283     -2.97164150869040     -1.16092058188572
  H          -2.75240132860322     -0.86989062051504     -1.69259746280916
  Br         -2.03575510723008      1.55334198349823     -3.17420324790022
  H           0.38570781297675     -3.73647552416707     -1.85295112994426
  H          -0.21985689583468     -0.17731813132224     -3.29009570752747
  H           0.69036700173078     -2.18366587009756     -2.76330910083615
  H          -1.91716587046478      2.23395321224971      0.38348734213602
  H          -0.99901824170687     -0.01403526998832      0.82898111009373
  H          -0.32479832221989      2.74539055173008     -0.36331012382242
  I           1.52242631401330      0.17490242457364     -0.14299119357575
