17
Coordinates from ORCA-job NEB E -31.809686657360
  C          -0.95480303043428     -0.40288334885211     -0.19582327573831
  C          -0.12760521359981     -1.12324391864172      0.84765802658265
  O          -0.99536905237882     -1.13364756018467     -1.38913023268590
  H          -2.00326069296378     -0.36519112766686      0.12976606566927
  C          -0.49122465760742     -2.42867113134277      1.13660682991364
  C          -0.42999421198481      1.07165202743261     -0.39214525029115
  C           1.04797752990278      1.09277950137108     -0.25356880631987
  C           1.49866984154895      0.65461292962039      1.07357028126171
  O           0.97001472502420     -0.65445113634585      1.43589274974164
  C          -0.87485419838680      1.58254446724608     -1.66912296973584
  H          -0.88900751348659      1.67806035022147      0.40239599848155
  H           1.66922987583110      0.94228372903130     -1.11875852822990
  H           1.15551027374225      1.33341162919658      1.86961475429132
  H           2.58168859064513      0.54337898515059      1.14603034432060
  H          -0.10499831267513     -1.28567909509183     -1.73136350979844
  N          -0.84847135236535     -3.49867087118298      1.39033214432639
  N          -1.20350260081162      1.99371457003868     -2.68195462178934
