17
Coordinates from ORCA-job NEB_reactant E -31.884481314380
  C           0.45805966561180     -0.31441916073378     -0.77496443190742
  C           1.35609044159803      0.58914270694032     -0.33651545425458
  O          -0.86197816624533     -0.09520913666353     -0.83596314558298
  H           0.75721846826313     -1.29756901163933     -1.10129796196142
  C           2.72871208006641      0.27474209108508     -0.30150722332833
  C           2.55266841488088      4.67338207699809     -1.23803348321901
  C           2.39874642411524      3.37492166342946     -0.98959702215285
  C           1.86023964327328      2.83491342564852      0.29891515632015
  O           0.89506578319169      1.82260146391679      0.10656539210920
  C           3.07750913567126      5.15197644098554     -2.45495521192725
  H           2.28677506035668      5.43247438699238     -0.51326597601695
  H           2.67368737817789      2.63806248395386     -1.73370408604159
  H           1.34268004744035      3.61338954281726      0.86582275326425
  H           2.69697891781923      2.45276120397728      0.90525042082571
  H          -1.04885038261413      0.80429358715202     -0.52792418091179
  N           3.85173543838471      0.03730146602147     -0.26756842512468
  N           3.49866165000887      5.55403476911858     -3.44225712009047
