17
Coordinates from ORCA-job NEB_product E -31.868625422710
  C           2.90078424656258      1.49391791691223     -1.08914489909860
  C           1.76049290902066      0.99942431747730     -1.98430057489232
  O           3.17110885140860      0.67779799237955      0.00411065911205
  H           3.82135673052532      1.51133867574530     -1.68540690479074
  C           0.80768707166822      0.16727981154533     -1.26854962064201
  C           2.52443334283860      2.96569688416750     -0.70786809225768
  C           1.27490490851042      3.00447877419967      0.13558166979968
  C           0.10729510306351      3.41867467272442     -0.31787916195768
  O           1.63040707817360      1.31525592763166     -3.13635126428482
  C           3.62485500623660      3.56498128299312      0.01481532002654
  H           2.37312628935108      3.52396974585747     -1.63946482663356
  H           1.38918058513741      2.66967610700927      1.15844054171252
  H          -0.02246674747949      3.77048184285177     -1.32873902179832
  H          -0.76932963504209      3.42234584284064      0.30572884104574
  H           2.40834646840631      0.62293640558747      0.59444440280233
  N           0.07983445414001     -0.45878373128401     -0.64564434182863
  N           4.48058333747866      4.03712753136130      0.60482727368550
