17
Coordinates from ORCA-job NEB E -32.621353382440
  C          -0.67977169258396     -0.99431963231951      0.59324036834897
  C           0.18711111720422     -0.91735316388359     -0.49429023679934
  H          -0.25246103503168     -1.41439851341698      1.49032489375737
  H          -1.69280658239061     -1.32318971516319      0.40641881800996
  C          -0.33502395946947     -0.85740531505766     -1.88325220365178
  C          -0.75760070923512      0.82090179439320      1.25229600770424
  C           0.35286038275801      1.46115616454226      0.71131999746318
  C           1.58286721538743      0.68492804774875      0.71992371828300
  O           1.37732962684425     -0.35630944909734     -0.35257112439281
  H          -1.73039447304585      1.22231431443486      0.99790592335008
  H          -0.68751694808693      0.50177207311169      2.28288160942273
  H           0.21859396224013      2.12955962086219     -0.12868694651249
  H           1.76805590768845      0.14809738803873      1.65302062501146
  H           2.47730603869849      1.19984874929170      0.37951237342264
  Br         -1.54373848496415     -2.31624221554789     -2.26965396114824
  Br         -1.39497050295253      0.86940220171586     -2.19718147882604
  Br          1.11016013693932     -0.85876234965307     -3.16120838344296
