17
Coordinates from ORCA-job NEB_reactant E -32.652936237990
  C           1.89782728758507      0.18654614318661     -0.10981619191603
  C           1.72927770440654      1.26242915875091     -0.86643043732502
  H           2.20430617683219      0.26210656386730      0.91634862802731
  H           1.73532184411867     -0.80411239739782     -0.48832986954370
  C           1.29312672941570      1.24687830251182     -2.29897385054970
  C           1.94045306148657      5.07689942210358      1.88288703560083
  C           2.44630465729096      4.35151165071333      0.90515097591550
  C           2.30230703940952      2.86449695862817      0.80577379890403
  O           1.89743581498461      2.55962671653909     -0.51855001650036
  H           2.07928219249515      6.14273163868626      1.92441810664414
  H           1.37596767622362      4.63465865759248      2.68744908076813
  H           3.00364429826374      4.80128463371663      0.09610267508478
  H           1.55913179732843      2.49150581505086      1.52172417651080
  H           3.26944063695501      2.37967143807884      1.00940860807735
  Br          1.08393705862689     -0.50572411676078     -3.06705949006604
  Br         -0.42167433424504      2.18899138505618     -2.43884559196259
  Br          2.60551035882237      2.22879802967653     -3.36605763766945
