17
Coordinates from ORCA-job NEB_product E -32.666451784880
  C           1.41232543494528      1.59374850890354     -0.01460657637372
  C           1.94254904186960      1.75474051038401     -1.40390556306837
  H           2.02894118644643      0.85071992330307      0.49642754451828
  H           0.37491499670391      1.25720571581789     -0.01662655146444
  C           0.89500812245770      1.69725460803362     -2.52330903890788
  C           1.51889389701344      2.92827655351840      0.76146054054108
  C           2.94002753529917      3.32160842821392      1.01751013404915
  C           3.45327582268012      3.46731537298895      2.22408759193075
  O           3.09013452018406      1.91638304209230     -1.70238292537941
  H           1.01380276295387      3.71675475333967      0.19669600523405
  H           0.99351974078244      2.80278450007103      1.70929676270478
  H           3.55163790294611      3.47691882660492      0.13966993327067
  H           2.86456353376236      3.31763495152028      3.11485044813965
  H           4.47959172799278      3.75360521136368      2.37377508297029
  Br          0.21032891453519     -0.13845961032130     -2.56379967897403
  Br         -0.57986247290766      2.91740039925575     -2.19163641263731
  Br          1.71274733233519      2.11830830491026     -4.22470729655354
