18
Coordinates from ORCA-job NEB E -41.133004234870
  C           0.53583242425674      0.90781544729491     -0.08785457867308
  C          -0.54112828051825      1.98687055237653      0.10431380200379
  C           0.36489891747447      0.24419334525320     -1.44334932601667
  H           1.40972813810832      1.50762700027273     -0.18416505462359
  C          -1.52198715258069      2.24706470112138     -0.85603079053274
  C           0.68107342625612     -0.09675681282480      1.09114797235706
  C          -0.45327563426568     -1.08119718811605      1.01250893843634
  C          -0.28973910301803     -2.37146779744394      1.19471261244718
  O          -0.49132220461469      2.69288892005344      1.08436968724850
  Cl          2.31047115694196     -0.80838924648452      0.97408860159423
  H           0.61131157796231      0.33920952979644      2.09070448118873
  H          -1.43014663424843     -0.62404397791835      0.92924547350660
  H           0.67345634098576     -2.82712294543560      1.18253946667471
  H          -1.16195486589071     -3.00341153625925      1.23313308304480
  Br          1.54914952549667      0.99602605317413     -2.72277758257126
  Br          1.29542131873212     -2.55033559819141     -1.93170861391942
  Br         -1.27128898510994     -0.32432283715956     -2.11318199996056
  N          -2.27049996596801      2.76535239049072     -1.55769617220462
