18
Coordinates from ORCA-job NEB_product E -41.198318440390
  C           1.42200017957152     -0.00164424696126      1.65614324362756
  C           1.88520074235409      1.46377276729345      1.72832164719046
  C           2.23782085184430     -0.83224266230068      0.67183882713062
  H           0.38913827477202      0.04190076162960      1.27440124368101
  C           2.41774558549691      2.06229973802117      0.51664780024328
  C           1.30848451411495     -0.55696371679618      3.09316478288317
  C           0.28693972572587     -1.65032546305278      3.24004272746823
  C          -0.99151676416402     -1.49657181675316      2.94775729734007
  O           1.76216270254632      2.12916288647533      2.71985561632846
  Cl          2.90805146211006     -1.10022316474804      3.70340324864793
  H           1.02786375060402      0.29103084269225      3.73066974190899
  H           0.65223897011508     -2.58569363402317      3.63484376333143
  H          -1.39871769075316     -0.57145104252777      2.57090863959650
  H          -1.69200665009122     -2.30033652571576      3.08261395232664
  Br          1.63226095688853     -0.45187312837137     -1.16147542934921
  Br          4.15243892645992     -0.44769159310187      0.76185900978337
  Br          2.00022192890317     -2.74532687422348      0.91104349550065
  N           2.82187253350165      2.65457687246372     -0.37523960763914
