18
Coordinates from ORCA-job NEB_reactant E -41.217407628810
  C           2.02179561396120     -0.02397784698461      0.21106635961687
  C           2.00862954493858     -0.39459761288266      1.50868443497631
  C           1.06211806793321     -0.61011178314989     -0.73944762602347
  H           2.73297308259512      0.70285526176282     -0.14570269692858
  C           2.94957872989355      0.18814285059484      2.40415959959337
  C          -0.03683006382556      0.51236809700954      3.76668728867344
  C           0.68766926054075     -0.50863169735919      4.19590001014352
  C           1.12845564622548     -1.64069330214689      3.31243465602990
  O           1.12590481015537     -1.31469218180263      1.93348857040656
  Cl         -0.51683457964613      1.79878735780154      4.78936068777502
  H          -0.38852934809686      0.61530170098287      2.75031466827517
  H           1.00128345437516     -0.57831895792915      5.22563974783982
  H           0.43361074023302     -2.48303838345131      3.39432149183195
  H           2.12639621684482     -1.98054418392987      3.61845262041478
  Br         -0.79732282386717     -0.25290204966075     -0.17646725394106
  Br          1.29677540796428      0.10680252790879     -2.52947844036154
  Br          1.25439282313609     -2.57376301737341     -0.83247183577353
  N           3.73213341663910      0.64241322060997      3.10545771745146
