17
Coordinates from ORCA-job NEB_product E -30.425386811330
  C           1.71302547053746     -0.04556577109668      1.60997044317828
  C           0.91915957393687      0.88168023450515      0.74470596469767
  C           1.63893875841383     -1.46774716536832      1.05487769624732
  H           2.75930440541195      0.28303494187361      1.59616658225284
  F           1.09399272687379      2.17345525268305      1.13806095207936
  C           1.20012571507984      0.05503677847410      3.06765442486326
  C          -0.28829360590040     -0.10273392315587      3.15469012415826
  C          -1.10838431937370      0.87339172783520      3.49385693597200
  O           0.20954590260378      0.64491061759187     -0.16687481679427
  H           1.69564355869887     -0.72744709513508      3.64679734189558
  H           1.48770120551236      1.02595635709983      3.47417525314803
  H          -0.67783599604909     -1.08370255420378      2.91912454513899
  H          -0.74701368767011      1.85952383749928      3.73623041764429
  H          -2.17363185121543      0.72996821722656      3.54505652690695
  F           2.49637591549248     -2.27694946008390      1.75397154757905
  H           1.94930015980591     -1.49858210022404      0.00586326437673
  H           0.63694606784159     -1.89242989552097      1.15447279665564
