22
Coordinates from ORCA-job NEB_reactant E -37.910631499820
  C           1.88783144672796      0.10913554774469      0.09605429153732
  C           1.53128580645244      1.36642631930688      0.40358230789365
  C           1.68782717602993     -1.17065521438508      0.84224141064030
  H           2.38361336631446     -0.02891650378314     -0.85484013008786
  C           1.84342137797364      2.35818691036348     -0.57759051923447
  C           2.38787331496559      1.91610540065033      4.51160669700545
  C           2.15586107425629      1.22684041744563      3.39907113310902
  C           0.82414205094386      1.24390337491782      2.71336586703498
  O           0.88103391405925      1.91183369755395      1.45964876996702
  O           3.52617779938636      2.00893082055699      5.22066663161720
  H           1.60540303579029      2.48862359310874      4.99278741171721
  H           2.93917568793137      0.67190976077553      2.90549049688224
  H           0.11043366636076      1.83527070754186      3.29157113981463
  H           0.42214813408834      0.23159378543846      2.58733255865861
  F           2.41153363983961     -2.16714661881097      0.23454028475226
  H           0.63907899387373     -1.49833316089578      0.81440020960102
  H           2.03486287823455     -1.13692380464026      1.88181461552214
  N           2.10652822748953      3.14008463463481     -1.37110444499293
  C           4.66652470757190      1.33928037388201      4.73053233549936
  H           5.46823510612388      1.55875391485604      5.43281290309988
  H           4.94177658491243      1.70265814045919      3.73599640405219
  H           4.50303201067384      0.25803790327884      4.68931962591079
