22
Coordinates from ORCA-job NEB_product E -45.439123701170
  C           3.08837472117132      0.08408338704637     -1.09104141022973
  C           1.73246069079175     -0.56494076292213     -0.84973656107990
  N           3.33066264734400      1.19633596531121     -0.21065687051702
  H           3.86537417066733     -0.67570613181560     -0.93654893311104
  C           1.45259389096665     -1.90226626781631     -1.57767101013987
  C           3.16418516748912      0.52416594705825     -2.58509264879533
  C           2.27323842003988      1.70345955067456     -2.85401580496164
  C           1.14082307655657      1.62585043671944     -3.52623519348686
  O           0.89024748610143     -0.09206914065223     -0.13719146609418
  C           4.60912550807626      0.86519005033150     -2.96374800177912
  H           2.87760949318684     -0.32058296363329     -3.21785464342319
  H           2.62423645287187      2.63941992241264     -2.44391245432116
  H           0.78093632045946      0.69657504686966     -3.93644261231165
  H           0.52260201875991      2.49133933991370     -3.68879450367484
  H           2.51562202064139      1.79838457087194     -0.16456757293477
  H           3.54607766085231      0.88360541293279      0.72737580523314
  F           0.84166959233015     -1.65860042193356     -2.76299363451349
  F           2.59189040221372     -2.56936771169826     -1.86393495705616
  H           0.79681560195073     -2.55645821754560     -0.98338231410875
  F           5.10366543308983      1.90674173141078     -2.26656372459464
  F           5.43087401059304     -0.18480631491846     -2.71635325950611
  H           4.69551521384643      1.11014657138260     -4.03533822859369
