22
Coordinates from ORCA-job NEB_reactant E -45.442324790690
  C           2.53849435892795      0.01062656257503     -0.22934101589994
  C           1.81880812383589     -0.63076765799101     -1.16632091964045
  N           3.89510692170272     -0.04387549897142     -0.14503370400185
  H           2.04156187145837      0.64418325851187      0.48957773230636
  C           0.33882972542121     -0.41404298441705     -1.29473412220766
  C           3.06816598975341      1.36090817222109     -3.40510615987095
  C           3.45078306201875      0.09756225373181     -3.50093484075233
  C           2.48989604015241     -1.04885399734574     -3.40754802696872
  O           2.42299640601379     -1.50574577549345     -2.05338452134848
  C           4.01760798213932      2.51790148830015     -3.36178169865465
  H           2.02915646390892      1.64742869270813     -3.33511480991125
  H           4.50120307488224     -0.15432548633989     -3.54434711605891
  H           2.84159434404496     -1.91308521595664     -3.97352406369657
  H           1.49636304632168     -0.75864581390851     -3.76475719138455
  H           4.34365333930455     -0.73915615307326     -0.71955286046688
  H           4.33595008431582      0.17234124220453      0.73063257011632
  F           0.03762642481745      0.58224802550919     -2.19622799301907
  F          -0.29583419569885     -1.51217807833089     -1.76156119389564
  H          -0.12872923007667     -0.12056448229755     -0.34337052512393
  F           3.82785131113511      3.24790815896120     -2.22845112852932
  F           5.31398370551537      2.12428923398874     -3.33869401320483
  H           3.89393115010558      3.20804405541368     -4.21442439778670
