24
Coordinates from ORCA-job NEB_reactant E -55.178045607040
  C           1.18043864394594      0.57855984119056      0.56534082989344
  C           0.81493800035185      1.85699147527618      0.42097995765954
  O           0.43756937497523     -0.36320594513356      1.19672184755954
  H           2.12233234776190      0.23927639437514      0.15273519200817
  C           1.60579321897367      2.85865115855819     -0.33845879411549
  C           0.56072510231172      1.90471257879960      3.52072567568308
  C          -0.54360082175971      1.36503587652941      3.02688293040493
  C          -1.18132457458457      1.81429547988983      1.74837983709377
  O          -0.30810624389269      2.50009804952380      0.87868040621723
  C           1.29435116634038      1.42939939017923      4.71815975650215
  H           1.03812660399953      2.74980504067053      3.04359730417451
  H          -1.03107594459351      0.53662205500918      3.51697859554388
  H          -1.97733188152028      2.53810636492950      1.95503602272395
  H          -1.61859554398133      0.94843290618765      1.23882480891721
  C           1.15070368825776     -1.51465509140423      1.60188785678212
  H           0.40660379345764     -2.21069177359604      1.98248057206534
  H           1.86472514602535     -1.27181111020084      2.39367589165806
  H           1.68145104881154     -1.96649926763330      0.75893966801795
  Br          3.25440193735619      2.22222908099430     -1.09471212999499
  Br          0.50356346561224      3.57247982124641     -1.80052196444479
  Br          2.03159968331069      4.36338285080776      0.84667140336926
  Cl          2.90959248957396      0.84475811385358      4.18820946121330
  Cl          1.54780853192307      2.77691997023117      5.86211005251499
  Cl          0.49261076734345      0.10740673971593      5.57387481855288
