20
Coordinates from ORCA-job NEB E -42.511545909430
  C           0.60621818696183      0.19009846989801     -0.67062848134424
  C          -0.59509728503392      0.94277690736031     -1.21074299579475
  N           0.67295570017809     -1.12165630907256     -1.26969980446614
  H           1.53135909838095      0.71785033352766     -0.92876702243057
  C          -0.60009847959536      1.16982620567155     -2.57796810377890
  C           0.50574908390425      0.07350333740088      0.88762171283356
  C          -0.90054930380043     -0.16685515751993      1.29484869206463
  C          -1.79047635329988      0.92989982509888      0.88635299481801
  O          -1.71679955233732      1.19209780565887     -0.54520995226748
  C           1.44870841059654     -1.00376263947861      1.40888861104994
  H           0.86090703337460      1.02620919714842      1.30460422309853
  H          -1.26872410838241     -1.17680498928304      1.32760851946407
  H          -1.51964097924578      1.87911096926804      1.37285629726706
  H          -2.84468740599663      0.72172886075623      1.06964957192650
  H          -0.20886921245756     -1.61816834713324     -1.23597279381445
  H           1.03545109649685     -1.11566940141024     -2.21236344764625
  N          -0.51855772207926      1.40519853028951     -3.70804158627069
  F           1.02325448182291     -2.24923523723746      1.18571788499218
  F           2.67747661323398     -0.90561100647713      0.88204908314813
  F           1.60142069727855     -0.89053735446615      2.73919659715087
