20
Coordinates from ORCA-job NEB_product E -42.566524312380
  C           2.74669606699859      0.57180922882485      1.69299760099770
  C           1.79910707458793      1.64164646671755      1.12940932499394
  N           2.66106537654051     -0.69185443267592      0.99852996459776
  H           3.76869701217612      0.96016522897014      1.57165943571433
  C           1.72764595050833      1.57603661165290     -0.32105838930897
  C           2.46296057616570      0.40412719135904      3.20554607744098
  C           1.21336301834711     -0.39457680844154      3.46103315592424
  C           0.08493382997985      0.14414701409050      3.88059358915203
  O           1.16585527175766      2.42786739481117      1.78188328111679
  C           3.64748235927780     -0.26516288745867      3.89289574157209
  H           2.36483099685558      1.40310678803642      3.64498234032480
  H           1.30146352925818     -1.45506887505235      3.27202150095913
  H          -0.00606042162446      1.20065562132785      4.07039227397277
  H          -0.79552804892690     -0.45216388022249      4.04449379183485
  H           1.70403050533169     -1.00430208211950      0.88908168287085
  H           3.11470355740178     -0.67423883366979      0.09524059023958
  N           1.71721541127025      1.50939589525859     -1.46370871853128
  F           3.85165935421417     -1.52751326762726      3.51096961247337
  F           4.79779910063022      0.39500285404565      3.66735800275380
  F           3.48477947924990     -0.28867922782711      5.22457914090125
