19
Coordinates from ORCA-job P E -25.138301066470
  C          -1.33763283713330      0.45266365100353     -2.29493749608165
  C          -0.13873987623069     -1.65922951138729     -1.04761857226289
  C          -1.48737748760302     -1.86306204437263     -1.65873139628124
  C          -2.06321027234294     -0.85224692789460     -2.29078028713619
  C          -0.89577312957726      0.78501509004022     -0.86854537707058
  C          -0.05367621292914     -0.34522316235002     -0.24211713371492
  H          -1.94984988637407     -2.83508075020440     -1.59241216500178
  H          -3.02748742284307     -0.91629237173127     -2.76652392186517
  Cl         -2.37419677043679      1.76930526846978     -2.92262766699775
  H           0.13054020153295     -2.49795591694137     -0.40554860773195
  H          -0.46971142756031      0.41399169075471     -2.96229304595747
  H           0.59918046771748     -1.61274475987783     -1.85573593727813
  H          -1.79801342164779      0.94652264679254     -0.27612266813832
  H          -0.44994678698997     -0.54395515897673      0.75816626246013
  H          -0.32981910266513      1.71723278400337     -0.87146723479446
  C           1.40804040595084      0.07382046907841     -0.09941996203317
  H           1.82737736380776      0.33257857031082     -1.06950618073955
  H           1.99656306190430     -0.73766156058783      0.32333293226807
  H           1.49734313342017      0.93691199387059      0.55620845835704
