19
Coordinates from ORCA-job R E -25.047289849810
  C          -1.24513793943686     -0.07173442342735     -2.75659887883549
  C           0.04688697389911     -2.74750885825754     -2.24826126156087
  C          -1.14001020164443     -2.34637690445127     -1.80333836730180
  C          -1.81261930346231     -1.10630924118662     -2.14131189065162
  C          -0.73401626194617      1.97421906713621      0.02690534187637
  C          -0.34043691591943      0.76613470538817      0.38146858109710
  H          -1.69134080354723     -2.98741626163317     -1.12771859509040
  H          -2.84954285993659     -1.03361412122031     -1.84414730308758
  Cl         -2.10191040088910      1.36696224736095     -3.11315020698844
  H           0.47253858448006     -3.68664811423056     -1.93993888588772
  H          -0.21292927830571     -0.04268608505622     -3.06483100464149
  H           0.62939656238105     -2.16603531582101     -2.94149276449679
  H          -1.72379480442023      2.34043514065441      0.23890872865509
  H          -1.01825147361449      0.10454332943159      0.90591637527660
  H          -0.07926771448638      2.65120602612670     -0.49753532074083
  C           1.01656321051908      0.20494258838422      0.11838016814900
  H           1.62740694219552      0.90952101327490     -0.44061465682605
  H           0.93495018273953     -0.72452397573259     -0.44499855427780
  H           1.51654550139459     -0.02226081674049      1.05994849533273
