19
Coordinates from ORCA-job TS E -25.031544882180
  C          -0.96900014670701      0.68120031699756     -1.53093065708200
  C           0.32753202283165     -1.51760479041282     -0.27425416739908
  C          -0.99162474581266     -1.54363979725201     -0.59389616115764
  C          -1.63523492075947     -0.46638077157975     -1.23749043530270
  C          -0.34919625714862      1.24281470433817      0.61592158108935
  C           0.41520130885718      0.25600364538214      1.15119884964816
  H          -1.62431799554183     -2.31811641479977     -0.18316991450839
  H          -2.71375263404845     -0.47736804299826     -1.29947692706608
  Cl         -1.81797605211281      2.05163721281876     -2.14608092876347
  H           0.75260587684362     -2.31712643878215      0.31074749066044
  H           0.08561025065369      0.72169930469517     -1.73828902888921
  H           1.02880638475710     -0.94339630569240     -0.84936782671325
  H          -1.39171073223069      1.32990427758267      0.86379193206988
  H          -0.02546171459206     -0.42279978268351      1.86625436107883
  H           0.11188476243974      2.11213363970170      0.17932723961330
  C           1.91212314509364      0.37051149486582      1.19623386057167
  H           2.29188071515458      0.89937791423788      0.32487710408658
  H           2.39574460854592     -0.60041991172068      1.26261241378619
  H           2.19688612377648      0.94156974530147      2.08199121427742
