22
Coordinates from ORCA-job NEB_reactant E -32.770263751580
  C           1.99434894181013      0.31282858083467     -0.52327743550366
  C           1.43839182212156      1.43387970831376     -0.99183615279669
  F           2.47785892342384      0.15353861066474      0.73981920994244
  H           2.14734657640357     -0.56187802615897     -1.13069622655985
  N           1.04333187641004      1.51882633622617     -2.32564932172191
  C           4.00615084871088      3.09903300407236     -0.28612818665628
  C           3.30477248390374      2.98863939222627      0.82846015877467
  C           1.80865985543258      2.87210402886234      0.88828189113794
  O           1.18414716232708      2.60668660510441     -0.35571539197851
  C           5.49547351074304      3.20399425739905     -0.39675596308596
  H           3.49196119469201      3.11300559914782     -1.23948126683179
  H           3.77493582566176      2.96997723506961      1.79943678220335
  H           1.37304952418461      3.82810979598343      1.20284705873630
  H           1.52701496575631      2.11387351310771      1.62886938864625
  H           0.37428558571467      2.26081287399795     -2.47261181427101
  H           0.76762071139694      0.64531699695921     -2.74572707508300
  C           6.24558686014801      3.16712374315462      0.92766541342700
  H           5.73190613387240      4.13376432544953     -0.92481184688317
  H           5.84380242147391      2.38408308943503     -1.03317306895504
  H           5.94908988811566      3.99949725548291      1.56149432393376
  H           7.31662378608165      3.23657415591914      0.75040349479357
  H           6.04454110161561      2.23720891874823      1.45368602873160
