14
Coordinates from ORCA-job NEB_reactant E -25.658273587180
  C           2.29270799453167      0.38691150907627     -0.06461161613359
  C           1.33900043354178      0.88044376616407     -0.84247025208399
  I           3.78661325922188      1.33516081490479      1.08488903328563
  H           2.34860632895620     -0.68014647928444      0.05214802163793
  H           0.67460998804691      0.15377336853355     -1.30327479018534
  C           4.00200539998439      4.00987181093793     -1.35932870752897
  C           2.89761865259811      3.41004022899780     -1.76346110072610
  C           1.66597050495650      3.27434006002822     -0.91646601511936
  O           0.93473254745762      2.10290016956100     -1.22699473386337
  Br          5.51106891693958      4.21284643438204     -2.47476617850369
  H           4.13593078953661      4.43793562161793     -0.37875720722118
  H           2.81728692908733      2.99414415532551     -2.75825887463268
  H           0.97228660196968      4.08646804541349     -1.16755455730481
  H           1.89786165317175      3.34111049434185      0.15030697837953
