22
Coordinates from ORCA-job P E -28.488398711120
  C          -1.12535981879030      0.28149535699418     -2.57846462074435
  C          -0.46795979770133     -1.64195967071471     -0.37367044249390
  C          -1.44917915398463     -1.92994935542802     -1.46830110863148
  C          -1.73630199914680     -1.08297510104177     -2.44136317703238
  C          -0.51901658678283      0.72675152338238     -1.24470385488538
  C           0.34127880647696     -0.37885088565923     -0.64568851902324
  H          -1.92305942434233     -2.90069681216766     -1.42364214188078
  H          -2.43901583567633     -1.36290343229644     -3.21401744670558
  C          -2.16755343143616      1.28034180756909     -3.09714151982934
  H          -0.99875063478992     -1.52768788774896      0.57627029747589
  H          -0.31706869093269      0.21509548931138     -3.31900904579339
  H           0.21874555774026     -2.48570582029567     -0.26575967792179
  H          -1.31399155398932      0.96044048757123     -0.53428644281562
  H           0.84059861986663     -0.03449837255422      0.27066022928038
  H           0.09500025603206      1.61620250033239     -1.38917544445536
  F           1.37093967409666     -0.67727049968857     -1.52503314202941
  C          -1.58372672726311      2.65021263043494     -3.42227645894608
  H          -2.96080589396006      1.38755257128151     -2.35303423919321
  H          -2.61790789104609      0.86729255715672     -4.00288966845371
  H          -1.23231573640000      3.15240614543062     -2.52476257493874
  H          -2.34073999471861      3.27926195634070     -3.88535085041781
  H          -0.74933974325206      2.55394481179013     -4.11375015056471
