22
Coordinates from ORCA-job R E -28.390027708810
  C          -1.42734811676666     -0.05447460397999     -3.00836143211666
  C          -0.45848057969569     -2.35581565776051     -1.28821687265008
  C          -1.70149981919784     -1.89228015615030     -1.36486985580889
  C          -2.18356732102394     -0.88516305246701     -2.29358047101603
  C          -0.33270013763976      1.28533642450458      0.14051256713105
  C           0.69553385533914      0.49067593460969     -0.05387974748509
  H          -2.45351350722013     -2.29725879336687     -0.69828857046939
  H          -3.26149307339018     -0.82104755533948     -2.38514959602946
  C          -1.95922650858689      0.97327151716320     -3.95135286055052
  H          -0.18070476915405     -3.10841561534119     -0.56992832900051
  H          -0.35077872083093     -0.07585324196275     -2.91306423815865
  H           0.32213924852080     -2.01401767818930     -1.94593119646566
  H          -1.01967732898438      1.10015664310074      0.94328704629522
  H           0.95571958215787     -0.38017544926815      0.52916621350847
  H          -0.51456585958964      2.13218162102606     -0.49667708488055
  F           1.56952325365383      0.69557070677750     -1.05302227043029
  C          -1.58624184711386      2.38563604258362     -3.49750765749776
  H          -3.04523667080651      0.88715938397325     -4.02949626266414
  H          -1.53155757984613      0.79898255696123     -4.94319827422142
  H          -2.05255958328528      2.60812271147678     -2.54002558673576
  H          -1.92391952342467      3.12101121416855     -4.22423413671670
  H          -0.50757499311511      2.47601704748035     -3.38900138403720
