21
Coordinates from ORCA-job NEB E -41.829645434280
  C           0.06384544287869      0.20712106740003      1.17677106079643
  C          -1.11499393542826     -0.51477215684542      0.85479353798163
  O          -0.08351936544664      1.53342433875535      1.45743192373246
  H           0.82076219245491     -0.31627840505282      1.76200674806291
  C          -1.11972183060400     -2.01214014310147      1.00886194209410
  C           0.76827047639533      0.16962893833614     -0.63656596685498
  C          -0.19841841635031      0.91184090425769     -1.33473267065861
  C          -1.47623636585669      0.33448303218471     -1.45878198973809
  O          -2.00397852770499      0.05950684311723      0.12734726712282
  C           2.15466862526640      0.73316602765062     -0.52022463281333
  H           0.81651352806715     -0.90190474622019     -0.80716949741008
  H          -0.10732482593836      1.98754697058053     -1.34099382522859
  H          -1.52717374975533     -0.69260528041589     -1.80478126558245
  H          -2.26768189398204      0.95844056055779     -1.84866226479052
  H           0.76404498898774      1.95558003633512      1.64055692130241
  H          -1.71318337594442     -2.28496418187420      1.88049916666713
  H          -0.11411711172277     -2.40103356040223      1.14719252208945
  H          -1.58350693374735     -2.47356831105657      0.13892694620802
  F           2.19132639638337      2.02503957412589     -0.15666186493282
  F           2.89880241827634      0.07448521439367      0.39149585511666
  F           2.83162226377125      0.64700327727402     -1.67730991316456
