21
Coordinates from ORCA-job NEB_product E -41.876798547330
  C           3.16669068704759     -0.15384272395159     -1.11947623192227
  C           1.70501321124245     -0.56731751645870     -0.91201283493232
  O           3.57160965894262      0.68699426117789     -0.08952611619314
  H           3.80045537815386     -1.05341463603247     -1.11483481649325
  C           1.13581122590148     -1.57111418435938     -1.86466582857747
  C           3.29956616292953      0.53356621601883     -2.50928983809097
  C           2.45513475374422      1.77296426744161     -2.58514619792695
  C           1.52195249197670      1.96932056219540     -3.49587597188364
  O           1.08404457131707     -0.06080604671497     -0.01172431877839
  C           4.76123371998269      0.89715284464886     -2.76666719936353
  H           3.02544252544878     -0.17603741979791     -3.29592924673116
  H           2.66814694164109      2.51058491728375     -1.82466320915197
  H           1.31217209585472      1.24620049934896     -4.26754571784849
  H           0.93486538908258      2.87012512806196     -3.51330394100314
  H           2.77544874076928      0.91824044543225      0.42268590755000
  H           1.89835759392506     -2.24202628111695     -2.24818651725180
  H           0.68376143493774     -1.03347255220692     -2.69769552959180
  H           0.34836867665035     -2.13560035663767     -1.37117406166048
  F           5.23300812449230      1.86801610348033     -1.99168776636884
  F           5.57320537298902     -0.16290353423682     -2.61748020124088
  F           4.92601124297087      1.30937000642353     -4.03860036253951
