26
Coordinates from ORCA-job NEB_product E -56.266500190660
  C           2.69098622581418     -1.84916965898224     -0.00754144819671
  C           1.37271273386983     -2.19205953839229      0.72954752067895
  C           2.41957554502521     -0.64680408650396     -0.90840499622634
  H           3.44069410667551     -1.51335180972364      0.71608481082280
  C           1.43208924394683     -1.93592485028050      2.21073520485733
  C           3.28957923397106     -3.00281491144775     -0.84329595728973
  C           2.34205866551085     -3.52155767568061     -1.89239522868554
  C           2.65193170191046     -3.56234487822000     -3.17364831284176
  O           0.39576331476489     -2.55628258305288      0.13923427111100
  C           3.75155796636189     -4.15055830337382      0.06090104715508
  H           4.19191365715080     -2.62023118961811     -1.33812192807368
  H           1.37766087384377     -3.85008730367935     -1.53720136789540
  H           1.95665791273108     -3.93288654050481     -3.90533287099182
  H           3.60634830782248     -3.22491705274497     -3.54438097846171
  F           3.52462335453719     -0.26706680715006     -1.57262161038834
  F           1.47251698607651     -0.83381317237694     -1.82175727471369
  F           2.04591697658115      0.41375058278500     -0.17164433209305
  C           0.17275915009304     -2.41142329784812      2.92186005512157
  H           1.55850186166822     -0.85605905248356      2.33976747357319
  H           2.31957039720522     -2.41943542518062      2.62426183118234
  H          -0.70406664191672     -1.93988761568823      2.48676355460003
  H           0.21925113551485     -2.16542127823428      3.97883228094358
  H           0.06688601796319     -3.48790381646665      2.81541580724848
  Cl          2.40069829284424     -4.90372707404095      0.92766109271105
  Cl          4.54665510421457     -5.39375253960610     -0.93111919481207
  Cl          4.93595787581969     -3.57877012150453      1.26800055066441
