20
Coordinates from ORCA-job P E -29.381827437130
  C          -1.21125341142298      0.51831287040030     -2.29132548346820
  C          -0.39552747614127     -1.67489611140704     -0.45294882446030
  C          -1.23985512888273     -1.88048253985472     -1.67019750940959
  C          -1.61310185406082     -0.91329939153246     -2.49027807680951
  C          -0.86120442456698      0.76622940718187     -0.82248188433263
  C           0.17480276558623     -0.25812782970043     -0.35314416917127
  H          -1.54461794775393     -2.90123582031364     -1.85476692891204
  H          -2.21092198163227     -1.12839508280816     -3.36476309205351
  C          -2.31587313423873      1.45998597714505     -2.76102915546913
  H          -0.99007567724098     -1.89539150538422      0.43822666735065
  H          -0.32112018904463      0.71798558944062     -2.90320459958769
  H           0.44200412829731     -2.37555695742618     -0.47300750321672
  H          -1.75744808655900      0.66315379348875     -0.20764452499745
  H           0.43347004358764     -0.04965424371570      0.70015213011558
  H          -0.47597968196272      1.78139022902905     -0.69858953359223
  O           1.35141280004880     -0.21556347555802     -1.13397558387853
  F          -1.89151996745856      2.76734143651370     -2.70064395723716
  H          -3.20294765648484      1.38765051601704     -2.12290347006719
  H          -2.58793503200817      1.26840925280884     -3.80414904648558
  H           1.66558191193861      0.69446388567533     -1.17263545431750
