20
Coordinates from ORCA-job R E -29.296850734200
  C          -1.22204544110333     -0.05686949582001     -2.90946398312030
  C          -0.24768090769658     -2.54809308760607     -1.50574169803905
  C          -1.51266052194354     -2.18725166521531     -1.68662702605413
  C          -1.95208504387066     -0.88989017435975     -2.17215213061304
  C          -1.03982298694172      1.21096994123431      0.52225636655005
  C           0.09930035128202      0.59130891022998      0.26795085228158
  H          -2.30848257997699     -2.87627738553751     -1.43426535363769
  H          -2.96983265741806     -0.61796028800421     -1.91949673152617
  C          -1.70151379500306      1.28078624014529     -3.36435972936085
  H           0.00885431681520     -3.52260232460408     -1.12697576862559
  H          -0.21152732568599     -0.30440827293009     -3.19819583316800
  H           0.57016435275110     -1.87742976872754     -1.70439197126094
  H          -1.63796503537593      0.95020229249292      1.37393263456857
  H           0.49262341659117     -0.19538207440904      0.89560039153887
  H          -1.40911675022329      1.99457416022157     -0.11762242546051
  O           0.92079422767530      0.83896749644772     -0.77522526623252
  F          -0.85089437387068      2.27236586837723     -2.89844868543481
  H          -2.69667445005167      1.51739123811166     -2.97636429101036
  H          -1.68942248302459      1.36906183815498     -4.45717901160288
  H           0.53795768707130      1.53490655179795     -1.32870033979225
