19
Coordinates from ORCA-job P E -38.009765121600
  C          -1.20830057690655      0.54429904388750     -2.36188068922726
  C          -0.38689545220449     -1.69771806315310     -0.59056295509285
  C          -1.18502699635494     -1.88118439514992     -1.84356443277050
  C          -1.55523290995112     -0.89289775980235     -2.63859361723757
  C          -0.86567307580876      0.76223116832658     -0.88492200778635
  C           0.15567272669690     -0.27931764204927     -0.44260121809090
  H          -1.45272774404904     -2.89990497932866     -2.08138833591087
  H          -2.11464800408004     -1.08007485483132     -3.54275732831768
  C          -2.36944317580385      1.44342549066882     -2.75980119035340
  H          -1.01153604488728     -1.93506716698029      0.27471305300426
  H          -0.35552824859794      0.84116048573790     -2.98663558463548
  H           0.45281742589222     -2.39713236797250     -0.58998654890112
  H          -1.76322969074825      0.64798351508401     -0.27507904551038
  H           0.48212294530082     -0.09165806729188      0.58810957088600
  H          -0.46415287878755      1.76625065287693     -0.73856232036770
  F           1.29404222002906     -0.14384840110236     -1.21781528190245
  F          -2.68141938607371      1.33473734986605     -4.05936566811960
  F          -3.49121773256277      1.16841643441272     -2.07496754103345
  F          -2.10467340110271      2.74211955680116     -2.54177885863268
