19
Coordinates from ORCA-job R E -37.908761554370
  C          -1.32812993810629     -0.08685756766511     -2.91110815616223
  C           0.01106569415368     -2.56789317345846     -1.84187482623355
  C          -1.29747645372858     -2.37511051833411     -1.97412192581372
  C          -1.92806628894494     -1.11092750623249     -2.30649664827115
  C          -0.79001708808928      1.95531747671792      0.38361204124428
  C          -0.24968727994901      0.75809024497130      0.36534232010647
  H          -1.98178532120746     -3.19538485826415     -1.80200913278361
  H          -2.97683560722635     -1.02686365402357     -2.04982513927619
  C          -2.03639215605567      1.18334140962925     -3.23627394962193
  H           0.41160481444964     -3.53316804268178     -1.58539996022679
  H          -0.29605517633262     -0.10095161489335     -3.22258303691691
  H           0.72201368466117     -1.76886882033294     -1.95861530918702
  H          -1.51733642226815      2.21229489162163      1.12909472369789
  H          -0.45427668369499     -0.05705405719609      1.04459360475814
  H          -0.52574134958252      2.70325153984026     -0.34260926857100
  F           0.66410869823905      0.40555852300978     -0.55696135149352
  F          -2.16849004618633      1.36321832441943     -4.56689349843870
  F          -3.27427893216782      1.26200791816777     -2.72383124039953
  F          -1.37420414796355      2.26649948470473     -2.78663924641094
