20
Coordinates from ORCA-job NEB E -52.680276555530
  C           0.78654601817842      0.15013509764932     -0.96403903937915
  C          -0.39817337895585     -0.46583289340070     -1.44009190497174
  F           1.88773497000501     -0.62347312536760     -0.91922897115377
  H           1.04441171001456      1.13237784114837     -1.35984478781273
  C          -1.50106272096995      0.45927444728185     -1.93104296241585
  C           0.40111297438985      0.34335633811402      0.83860640807820
  C           0.12967704302286     -0.99095689079921      1.20485100889989
  C          -0.99664962941850     -1.63409381510645      0.61656169714217
  O          -0.74214221751312     -1.62429827404880     -0.96917479989817
  C           1.53072883119495      1.05469178390364      1.53902038199148
  H          -0.45859541470521      1.01071532877660      0.76604402194015
  H           0.94242161436006     -1.60551113605058      1.56695965193610
  H          -1.94336703342809     -1.10166429209972      0.67971977495731
  H          -1.09961382351013     -2.69194632835513      0.82656051140117
  F          -2.42616577798855     -0.18383437165497     -2.63332774568560
  F          -2.15238953579371      1.05704474482475     -0.89727402816125
  F          -1.02300927912120      1.45543629986155     -2.68445802879473
  Br          0.89597580751118      1.47877620369383      3.36192612056169
  Br          3.16040982276478      0.02088803933278      1.71391832712676
  Br          1.96215001996265      2.75891500229646      0.68431436423806
