20
Coordinates from ORCA-job NEB_reactant E -52.714254434770
  C           1.69289137448165      0.03676007323632      0.27805482938310
  C           1.58432288887732      1.29025723684012      0.71474615097316
  F           2.33330982928404     -0.93630838554808      0.94473176965193
  H           1.27365036390344     -0.30454244461084     -0.65404657459590
  C           0.83042716609884      2.30231033363311     -0.12724236651453
  C           3.30289326479795      1.64711497306456      5.13887045570959
  C           3.17443203728861      2.03715150256332      3.88092509616197
  C           2.77592346419618      1.11927736986101      2.77293348701386
  O           2.03569740960454      1.88914596220591      1.83566797039475
  C           3.73363380664514      2.48980469095603      6.27465712684947
  H           3.10525582678413      0.62036563673626      5.42499776882031
  H           3.35719852085241      3.05670848456940      3.57091048556914
  H           2.17645692237346      0.28041986086528      3.14393048641916
  H           3.68048622567320      0.71750879797965      2.29373456630081
  F          -0.24122875494635      2.77508450302352      0.51591561126647
  F           1.59639087129978      3.35150294885595     -0.43651264358857
  F           0.39349438110299      1.78558624836022     -1.28119494358929
  Br          2.35117702602226      2.44623519157660      7.67828362844204
  Br          5.39211982248614      1.73338159694707      7.04057186377444
  Br          4.07796755317429      4.34473541888459      5.83236523155806
