20
Coordinates from ORCA-job NEB_product E -52.709153294210
  C           2.42216321752382      1.52193285151667      1.97103054558301
  C           1.02212405672689      2.09711891186563      1.70350852322010
  F           2.46724578125356      0.33793032134034      1.27590275374183
  H           3.22195007748700      2.15284810907646      1.56245651367753
  C           0.98025457353018      3.23288213360127      0.64245588316111
  C           2.61948731834619      1.22589376546795      3.46841579625218
  C           3.71012382854203      0.20757642390453      3.66919244109516
  C           3.57847410681158     -0.83950632836502      4.46103233655033
  O           0.01947283259579      1.61549904981754      2.13733866525393
  C           2.94570100188042      2.50392715539407      4.22909509194275
  H           1.67297558214962      0.82773115889962      3.86018556613663
  H           4.62476837015177      0.38827099272504      3.12226170312427
  H           2.67103672027047     -1.03737942489135      5.00762237709628
  H           4.38087140334807     -1.54325310976459      4.59199130883393
  F          -0.11383675509943      3.97508208174455      0.74867513589086
  F           2.04042378188641      4.04881958439799      0.73278739376676
  F           1.00606312415556      2.69882181380906     -0.58323682242447
  Br          2.96718635677420      2.15523574612632      6.13689451895340
  Br          4.67837138384924      3.23742007270494      3.72926440955657
  Br          1.59054323781663      3.89584869062897      3.87902585858785
