17
Coordinates from ORCA-job NEB_reactant E -36.703469325190
  C           2.83731531925166     -0.16680610443617     -0.92181928632983
  C           1.58281460517772     -0.37776889761785     -1.28520299185109
  H           3.50195867023476      0.46384621219073     -1.48118863243803
  H           3.23128003665646     -0.63412208552852     -0.04130219220225
  Cl          0.53677117985157     -1.40530624518388     -0.37708540640157
  C           3.74364078452655      0.99256692562483     -4.39698050667301
  C           2.64703304516825      0.36741655799860     -3.99854471919112
  C           1.56390745911962      1.02178530348952     -3.19675584334983
  O           0.89829188828790      0.11649160750495     -2.34308810117921
  C           4.83724593880463      0.41015576602761     -5.20312982196574
  H           3.91560295115492      2.03118282872366     -4.13791726305346
  H           2.46032287823328     -0.66921101904358     -4.24496261854241
  H           0.78004668558826      1.37386701227619     -3.87737600430112
  H           1.95078734096414      1.87863033396503     -2.63063813315110
  Br          5.08497008843567      1.48059228593899     -6.84418745096645
  Br          6.51714817936589      0.50692099653102     -4.16373962857464
  Br          4.57206294917871     -1.43644147846114     -5.73018139982915
