17
Coordinates from ORCA-job NEB_product E -36.730393720720
  C           3.08376003696365     -0.87257804111679     -2.45702172132081
  C           1.86319105743598     -0.65677050662338     -1.61139328397059
  H           3.95845213725571     -0.77282843351700     -1.80854032568486
  H           3.04727939299387     -1.88672065073029     -2.86401707809572
  Cl          0.36889529349867     -0.86771088599182     -2.53118880890933
  C           3.12981922676560      0.15765329693178     -3.59605971031974
  C           3.11847442156605      1.55138951923556     -3.02775079944134
  C           2.25401136139024      2.47835554995909     -3.39313087326571
  O           1.81868977142607     -0.38037703375901     -0.46286898733607
  C           4.35504983003165     -0.03879776233476     -4.48218335783412
  H           2.24884910309083      0.02054619771071     -4.23571573648266
  H           3.87504059733037      1.75614758763582     -2.28241362678117
  H           1.49201050525511      2.29201396498804     -4.13227372778224
  H           2.27319566697931      3.46435351869527     -2.96406403746155
  Br          4.34173216945741      1.26987154473622     -5.93404016374334
  Br          6.02634157657131      0.17235663810947     -3.50037493556888
  Br          4.35910785198817     -1.81970450392890     -5.30096282600188
