25
Coordinates from ORCA-job NEB E -43.809119191860
  C           0.15218419115397     -0.68632138368969      0.56652128784253
  C          -0.60738159558023     -1.50157992860095     -0.28471951868661
  C          -0.51506773521615     -0.12044041705168      1.80475401195542
  H           1.16928135666066     -1.01868615890339      0.74116644110796
  N          -0.02007515617466     -2.50333689274092     -1.00200176875124
  C           0.28797170293242      0.91699578849394     -0.69009444929681
  C          -0.65892477064522      0.74958561450154     -1.70573647811681
  C          -1.95571053412793      0.33896668574595     -1.27865697992178
  O          -1.80489779051393     -1.15746368041191     -0.65982031539021
  C           1.72336524545538      1.05271312437098     -1.10222317827043
  H           0.02833108173788      1.59285677053800      0.11387962229381
  H          -0.31599349876580      0.36158050357318     -2.65651405602528
  H          -2.69255229053059      0.16655353014249     -2.05405177025881
  H          -2.37047025925722      0.88712464905266     -0.43679895061336
  C           0.40989753073903      0.72498856185212      2.67149191513010
  H          -0.85856006491098     -0.96969672770222      2.40457907176416
  H          -1.40370775247021      0.45146839020192      1.53343454888938
  H           1.31393555077064      0.17165388315403      2.91385963808830
  H          -0.09178026822706      0.98535796072122      3.60063796859800
  H           0.70227667939213      1.64703523745244      2.17651096659812
  H          -0.48382168306233     -2.81530528287331     -1.83900944133213
  H           0.96792319303908     -2.66585378124654     -0.92044373691386
  Cl          2.27095286790842     -0.34597067525008     -2.05011991497152
  Cl          1.93248679200518      2.51248398205808     -2.12814812169930
  Cl          2.82033720768752      1.22529024661217      0.28150320798038
