25
Coordinates from ORCA-job NEB_product E -43.874175277960
  C           2.63903441909621      0.90801971726888     -0.91019143924082
  C           1.76375478244048     -0.20442858122902     -1.50460632281447
  C           2.06238287914564      1.26917824084352      0.46540441506965
  H           3.65521133898575      0.52658557023315     -0.78067090401506
  N           2.44435054614704     -1.14203662313371     -2.19868239205855
  C           2.66532986471570      2.14432622999915     -1.85078294581195
  C           1.60587600692595      2.06634099355073     -2.91735135120445
  C           0.51416977194742      2.80531903878142     -2.90830879117558
  O           0.56871276190167     -0.26644366278187     -1.33319867380387
  C           4.03182939774769      2.36149365635881     -2.49724779512687
  H           2.47354174146700      3.03743739084646     -1.24816192902376
  H           1.78043538375581      1.34750521095774     -3.70515804843998
  H          -0.23684004681974      2.71060239830566     -3.67218479334544
  H           0.31823720199982      3.52422991277344     -2.13025757886171
  C           2.98351743035365      2.14796649644069      1.30013376426972
  H           1.87834266578295      0.33782145596234      1.00441001627215
  H           1.09511437642385      1.75161251650822      0.31997111724969
  H           3.94336724599638      1.65947381340219      1.45184592405730
  H           2.53551684570672      2.33082753971286      2.27348212655395
  H           3.16416436257167      3.11020117882963      0.82752761213817
  H           1.92041053498136     -1.87728737465845     -2.64509268106788
  H           3.41752213169448     -1.03979905779999     -2.42807432891299
  Cl          4.53059117645367      0.99072593216964     -3.51149425678476
  Cl          3.97767992477080      3.81110389611639     -3.53865666998368
  Cl          5.30014725580803      2.61612411054209     -1.27485407393883
