25
Coordinates from ORCA-job NEB_reactant E -43.837188182450
  C           2.23753973479724      0.00067067417192      0.08169149355573
  C           2.06425092149602      0.11219680282493     -1.23454358403618
  C           1.29517410374379      0.54285744466468      1.11034115006508
  H           3.12166161542177     -0.49916669461536      0.44816416520308
  N           2.99624797128694     -0.28965363401853     -2.19166432375350
  C           3.19886748931268      2.94496664199499     -3.10393206570844
  C           2.08160459918314      2.24618081766827     -3.23040999312667
  C           1.09458301914913      2.06146425675085     -2.11902038234477
  O           0.93475128090574      0.69213184344661     -1.78234198016771
  C           4.23659077389432      3.11672941357921     -4.15077681922270
  H           3.43868667514044      3.45357262917310     -2.18026457593737
  H           1.84831038759742      1.72704816880647     -4.14852880367015
  H           0.10129724838073      2.38749127275959     -2.44243135666111
  H           1.39926386599187      2.63734805857355     -1.23624566551696
  C           1.95203607356713      1.64066007035778      1.94856231434039
  H           0.98393283842696     -0.26773127139666      1.77557107367123
  H           0.40433205583949      0.93257675885019      0.61612688344944
  H           2.83340120345444      1.25423563592360      2.45561812561856
  H           1.25799447944161      2.01366724408024      2.69832642437249
  H           2.25987706591500      2.47243345204845      1.31816570781237
  H           2.57910642329263     -0.60851780024733     -3.05442414307993
  H           3.70319610066311     -0.91945861667368     -1.84452938732608
  Cl          3.87235183773443      2.28458858895680     -5.66460549426440
  Cl          4.44473883045911      4.85946140707433     -4.51005839756309
  Cl          5.79620340490489      2.49254683524599     -3.53459036570933
