24
Coordinates from ORCA-job NEB E -40.767747981940
  C           0.30688784893389      0.82235159495960      0.07890759355983
  C          -1.08448605625275      0.87733999016319      0.22742495988561
  C           0.94632754416237      1.46957756375889     -1.12806012543956
  H           0.92372714245862      1.00675619580863      0.95093439182052
  O          -1.69281138795583      0.80147597421278      1.45184941481683
  C           0.44798388364506     -1.17940237531795     -0.20580178023008
  C          -0.45881126798858     -1.39578509058327     -1.23929974132893
  C          -1.82197051059194     -1.08525872128711     -1.03364564016982
  O          -1.84738475085985      0.58853128153445     -0.75618765204951
  C           1.90947239616033     -1.45537249802529     -0.41410070528788
  H           0.10165933419822     -1.40455506785407      0.79956225167450
  H          -0.08960644903881     -1.40658782804744     -2.25336827727221
  H          -2.27706552174848     -1.39563042146868     -0.09817731481297
  H          -2.48574773226744     -1.16324121403627     -1.88318862788565
  F           2.29563806032353      1.51641161536435     -0.95899447941540
  F           0.74960183191107      0.84701466002064     -2.30673558785102
  H           0.60538016593639      2.51175801829115     -1.25884295672030
  C          -0.96650481415627      1.10744061793347      2.61809653458156
  H          -0.44773903881526      2.06630331601981      2.52774584600195
  H          -0.24328171010793      0.32332576492336      2.86182593943756
  H          -1.70501886380275      1.17072121105174      3.41581796317189
  H           2.52367124296046     -0.94124144752269      0.32117762685439
  H           2.22598876839274     -1.15586581391067     -1.40908833914055
  H           2.08408988450318     -2.52606732598862     -0.30785129420076
