24
Coordinates from ORCA-job NEB_reactant E -40.801534495130
  C           1.49996703922172     -0.12670574023926     -0.16681309505976
  C           1.76190526602751     -1.01797570120887      0.81125965019305
  C           1.83966757426258     -0.13348915332159     -1.60762608596939
  H           0.95296383939441      0.73934017854356      0.16437490524615
  O           1.30282886135221     -0.67605307552287      2.03626116005756
  C           3.21922898025545     -5.25527108799030     -0.55384625933783
  C           3.50854459286972     -4.11099666915295      0.04191836005291
  C           2.93224681798250     -2.78855710776484     -0.35631121496911
  O           2.39436490157374     -2.19174999297885      0.82340638715509
  C           3.80578501614219     -6.57490461937251     -0.18518574252139
  H           2.52395344257054     -5.26874823800922     -1.38361331491824
  H           4.19708601880307     -4.07673390427898      0.87475551920563
  H           2.14860016188152     -2.92384390645366     -1.10580563197880
  H           3.72317389232381     -2.14714425441380     -0.76221797559091
  F           3.18361847026598     -0.21672181878809     -1.86142465230210
  F           1.29722734168741     -1.18397437442112     -2.30287201423458
  H           1.48453212266608      0.78193626907054     -2.10130681168256
  C           1.54374111993093     -1.56907880724860      3.10911241408546
  H           1.08461179814721     -1.10147715544047      3.97738208194666
  H           2.61436431416892     -1.70284822649830      3.27940141953292
  H           1.08728330883205     -2.54388499350821      2.92323873769295
  H           4.48431635473928     -6.48086367123951      0.65853953405083
  H           4.35051877322100     -6.99142893581740     -1.03185524933136
  H           3.01416999168017     -7.27742501394469      0.07302787867683
