20
Coordinates from ORCA-job NEB E -28.661736886080
  C           0.72775108038501     -1.01845252857144      0.15528221891478
  C          -0.45329454869997     -1.10632118174595      0.90317216885724
  Br          2.36581654001747     -0.73055243169220      1.11568409783055
  H           0.89744941262102     -1.73667071192438     -0.63850162892783
  C          -1.64198042217071     -1.81568932435960      0.31033029666260
  C           0.40056429427511      0.66389240355816     -0.74107397872113
  C           0.19418778963187      1.52527826366007      0.34080180368363
  C          -0.90021928227692      1.27208095513044      1.20964654416767
  O          -0.65046814368235     -0.22187786562040      1.83470754630308
  C           1.57706626027932      0.88675689714717     -1.65274306683129
  H          -0.48886102693753      0.33063436413506     -1.27286192843909
  H           1.05168600202205      2.04439744948159      0.74556300612592
  H          -1.87015461427050      1.11919754994606      0.74048429011834
  H          -0.96280589945300      1.87998089780918      2.10336139946677
  H          -2.30006963014333     -1.09620278857152     -0.18467294484013
  H          -2.21274662445151     -2.28517450872734      1.10870668539303
  H          -1.33675021038842     -2.57130996296896     -0.40710727601883
  H           1.77785988572205      0.00830060000755     -2.26217781047291
  H           2.47109863319286      1.13522722028722     -1.08623557458056
  H           1.35387050432748      1.71650470301930     -2.32236584869185
