20
Coordinates from ORCA-job NEB_reactant E -28.693850695460
  C           1.55073933800040      0.21379303972376      0.00227664711663
  C           1.36979606551895      0.60052486957320     -1.25993683080110
  Br          2.59359101234064      0.99838656259410      1.39475663268291
  H           1.05994020723894     -0.67431536709650      0.35947812770807
  C           0.47679289524228     -0.22516745794628     -2.15085321843757
  C           2.65521866942363      3.67261816402335     -3.64778421029776
  C           3.08163254429236      3.63982489394149     -2.39750729047149
  C           2.71862202367803      2.59885586065509     -1.38177810109269
  O           1.84752782775359      1.64639288885693     -1.96187277464076
  C           3.03182415043563      4.72073324902573     -4.63897950370602
  H           1.98782419142169      2.90119880949537     -4.00474485054879
  H           3.74994769977992      4.39944007307563     -2.01475545357766
  H           2.23515946958105      3.08847251643553     -0.52505773684183
  H           3.63651178089856      2.11154559203860     -1.02499338620920
  H           1.04801001364429     -0.56728729353345     -3.01155021587563
  H          -0.33774629959279      0.39697991858058     -2.51635848902425
  H           0.06890393238040     -1.08130491017595     -1.62510475518351
  H           3.70179502311415      5.45435798374506     -4.19772511134962
  H           2.14034146849288      5.23062765231187     -5.00305044302362
  H           3.52346798635538      4.26532295467589     -5.49815903642609
