22
Coordinates from ORCA-job NEB E -48.207348286450
  C           0.37907695760595      0.74424612739385      0.68801921487168
  C          -0.84302289512865      0.42781062564874      1.29881129903264
  C           0.46510759172365      1.97737425806409     -0.18945008981958
  H           1.24842176106097      0.67363717985821      1.34022641802212
  N          -0.77880669063149     -0.38866472711758      2.48732381769724
  C           0.54977234589411     -0.79800938189171     -0.49013394280432
  C          -0.67892290400130     -0.76067014574301     -1.14445156483855
  C          -1.90473493251229     -0.86347423960109     -0.37529665129087
  O          -1.93869007626638      0.31979015592021      0.58480179524027
  C           1.82232703140233     -0.69099135921676     -1.29989923982497
  H           0.67860875821128     -1.49706987119753      0.33172633009941
  H          -0.72569435222210     -0.32613650753905     -2.13217708213100
  H          -1.96594440749252     -1.73509534591394      0.28170938686148
  H          -2.81189486153531     -0.74691130670252     -0.96022643081076
  F           1.73278196566500      2.16599263160787     -0.61960417527156
  F          -0.31790744002092      1.93583913220387     -1.28053034360453
  H           0.18224012005375      2.87327682750554      0.39079733851451
  O          -1.74943207500947     -1.07004670562409      2.74546840956977
  O           0.25065459552667     -0.34782246464377      3.14005009441744
  F           1.62601311276067     -0.01680558037085     -2.47034912825140
  H           2.15919573582257     -1.70013676294468     -1.57006434983775
  H           2.62085065909347     -0.17613253969578     -0.75675110584127
