22
Coordinates from ORCA-job NEB_product E -48.230848375890
  C           2.76790122495561     -1.17691261484412     -0.72110833718732
  C           1.46295521205878     -1.17369261649960      0.01493908440342
  C           2.99501960608505      0.21638525145545     -1.33446085728531
  H           3.58082789563344     -1.34553785306889     -0.00436294934780
  N           1.26916783754720     -2.42898915838424      0.90486044830330
  C           2.75114481553939     -2.38134346854228     -1.71636723864357
  C           1.42519704452857     -2.46154340566548     -2.42895819377114
  C           0.56403588988036     -3.44329705272289     -2.24025385329688
  O           0.59223326676015     -0.37442287258524      0.01778952084582
  C           3.91628800635227     -2.36087455347938     -2.71340008172862
  H           2.89222407952638     -3.28352775774588     -1.11130667646560
  H           1.21771526301822     -1.65942026729192     -3.12147936168320
  H           0.75973887137674     -4.25835931761962     -1.56077397827741
  H          -0.37580736084937     -3.47548825543489     -2.76192817722550
  F           4.29455519101449      0.36814910310028     -1.67151013518482
  F           2.26341758155046      0.42905318182424     -2.43860702418174
  H           2.74542461523434      1.01191053267794     -0.61182324471098
  O           0.15392560210624     -2.61610770973651      1.29789417865691
  O           2.25203569444495     -3.09283976685330      1.13317696522443
  F           3.72872996923397     -1.45222328226218     -3.71380721962115
  H           3.98833384680843     -3.34173953422468     -3.19579238142499
  H           4.86313584719433     -2.11137858209682     -2.22322048739786
