20
Coordinates from ORCA-job NEB E -42.560475340190
  C           0.22445897381813      1.14685557799655     -0.27032429876088
  C          -0.75426578724492      1.17825184472565      0.75980220200898
  C          -0.23879625949601      1.22885047893647     -1.60937968183848
  H           1.14096812411411      1.70405719748745     -0.09765595528148
  N          -0.40553443121948      1.64899970839569      1.99880527431521
  C           0.67846567961657     -0.75515516247590     -0.12343270501471
  C          -0.54207713865832     -1.40881234917988     -0.31290041674462
  C          -1.55321863678599     -1.15329669225901      0.64979156956139
  O          -1.83213634414461      0.48192365682214      0.66207780021584
  C           1.78247903817198     -0.99153362619912     -1.11963083656874
  H           1.08681770665082     -0.70564041008234      0.88317546196234
  H          -0.83734627244384     -1.65121463397522     -1.32251036923100
  H          -1.27351139256365     -1.27800748759041      1.69261199095048
  H          -2.54151904610692     -1.53388848240898      0.42938151018722
  N          -0.63536710727213      1.31310116411785     -2.67946440137824
  H          -1.13888382578378      1.67520923199942      2.68922073611357
  H           0.30973990052455      2.35147349030014      2.07682963084361
  F           2.70070943257003     -0.00635892292129     -1.11359573209621
  F           2.45980966771787     -2.11683555597579     -0.81464683483575
  F           1.36920771853559     -1.12797902771343     -2.37815494440853
