20
Coordinates from ORCA-job NEB_reactant E -42.593898344010
  C           1.91008693682883     -0.42216307104235     -0.35826248912540
  C           1.62252082593758     -1.03916774678650      0.81389735341285
  C           1.85348911628482     -0.95029072964378     -1.64429106327151
  H           2.18661410113828      0.62189087377480     -0.31779533752118
  N           1.61713586380667     -0.35221899289658      1.99505460121680
  C           3.11489403571109     -3.94355168640049     -1.56133014270715
  C           2.66205190757506     -3.71174832029915     -0.34130898805877
  C           1.26714851853163     -3.26351563922999     -0.02425364876130
  O           1.24934692901486     -2.32293734698627      1.03225564571136
  C           4.50742892967901     -4.42341244815498     -1.82190998902454
  H           2.52584401566087     -3.79059332757174     -2.45264555853281
  H           3.29981053686798     -3.85224868774676      0.52250257574119
  H           0.70417751102168     -4.11764174682283      0.36987877779673
  H           0.75803985272389     -2.88048624965031     -0.91212622540772
  N           1.82187504906694     -1.32987657887699     -2.73118662480619
  H           1.58446145906838     -0.90226413918664      2.83605475730683
  H           2.07816680064441      0.53825712848367      2.03891419255452
  F           5.22586261772815     -4.60512716343800     -0.70144195188519
  F           4.51667268653504     -5.60290687162639     -2.46901474060241
  F           5.20697230617482     -3.57039725589875     -2.58449114403614
