25
Coordinates from ORCA-job NEB E -48.995722468310
  C           0.38606737169594     -0.49272031865450      0.32131587037415
  C           0.76400321154223     -1.29457016957697     -0.88407725487850
  O           1.52418370596649     -0.25558113712558      1.10491847031100
  H          -0.37588284184717     -1.01604536857041      0.92554819950354
  C           0.74311292907838     -2.77678461183742     -0.75655623548017
  C          -0.24243150835948      0.87698988104097     -0.16064777781644
  C          -1.16233167501036      0.61315546991613     -1.27329302895007
  C          -0.63180923818623     -0.12241325808601     -2.42861310560784
  O           0.61142360854385     -0.80056580884484     -2.13617710740140
  O          -0.85897073364706      1.47097255180596      0.95203374470319
  H           0.62748095829864      1.47168294881586     -0.49589444856747
  H          -2.22317790253146      0.64856568360489     -1.09595487820260
  H          -0.36785351266065      0.54052891302385     -3.26457379133418
  H          -1.36145771839832     -0.85775466840231     -2.80118710819443
  C           1.29592499781811     -0.16084431985582      2.49441083992278
  H           0.61877991591892      0.66433657738623      2.73065585315204
  H           2.27198123657379      0.01839762023168      2.94030877940109
  H           0.88075141964923     -1.09595333582111      2.88474097417760
  F          -0.52160577309872     -3.30300994134045     -0.89976753145106
  F           1.48138708677311     -3.40625110513653     -1.67376525146951
  F           1.15094522347980     -3.19310169581393      0.44791118160663
  C          -1.10167662391207      2.84889223761225      0.78859501260254
  H          -0.16397593258733      3.39947576399815      0.64827434122738
  H          -1.58953047374852      3.18402550679366      1.70129534542214
  H          -1.75533773135112      3.03857258483623     -0.06950109305042
