25
Coordinates from ORCA-job NEB_reactant E -49.081605977160
  C           1.60423120410136      0.27648200215643      0.20229842770763
  C           1.32555285603669      0.16010359568620     -1.10364643099491
  O           2.40347477207101      1.23936466082777      0.68837672814655
  H           1.19513143260446     -0.43981228249573      0.90628122753444
  C           0.35882159495434     -0.90841696216321     -1.55210851708275
  C           0.46864245052281      3.86169896458291     -1.84595868877503
  C           0.11609709390966      2.60768918778235     -2.10750620647537
  C           0.99369663535402      1.69084394885310     -2.90060094937198
  O           1.89363249252638      0.94294470862766     -2.06455806798187
  O          -0.19039963172442      4.78676162980496     -1.12106583214351
  H           1.38454892165986      4.28299290321640     -2.23889965255870
  H          -0.78659452456626      2.17196348610176     -1.70795928056156
  H           1.66519026140597      2.24924948642148     -3.55412584830919
  H           0.38835434289154      1.00521110630845     -3.50561151122164
  C           2.75914683887083      1.11595529356931      2.04865086471269
  H           3.31738497695558      2.01590171117092      2.29812466673632
  H           3.39159619084307      0.23829698440761      2.21303797099961
  H           1.87345466114070      1.04596656941073      2.68782929463075
  F          -0.91988673906286     -0.46649337121387     -1.62646387187181
  F           0.64845940109124     -1.39932856740157     -2.76100135822838
  F           0.32152296887595     -1.95306417816041     -0.70736858243377
  C          -1.40228338954545      4.39968527166881     -0.51438739270225
  H          -1.75978055468452      5.27287179637562      0.02833776949833
  H          -1.24771748883431      3.57101789124393      0.18335989202995
  H          -2.14317676739763      4.10481416321839     -1.26353465128352
