22
Coordinates from ORCA-job NEB E -58.273946160090
  C           0.74412658713894     -2.17542114235113     -1.89334717138450
  C          -0.17104156180390      2.77060956877145      2.03836952630954
  C           1.05648527870845     -1.41235715905949     -2.93098537526507
  H           0.78054601485873     -3.25331057522140     -1.99478849646189
  C           0.42399121643973      4.02810192256317      2.35309508077412
  C           0.31963046690314     -1.67815976074573     -0.55511063243393
  C          -1.16826798147346     -1.84206387631455     -0.34156736288583
  C          -1.85346845524418     -1.01445145116271      0.42440713812099
  O          -1.09891132423769      2.07916811074487      1.97134881503912
  N           0.96634127807909     -2.50393369077168      0.52089570238694
  H           0.61437868108958     -0.64097383884647     -0.37063560290376
  H          -1.62318336600470     -2.68535899041659     -0.83979180591785
  H          -1.35304528827805     -0.20603382413649      0.93376650535521
  H          -2.91187177497143     -1.12584964449533      0.57107673066829
  Br         -1.58044466688661      3.21782993956072     -1.56258606375571
  Br          1.56762644394981     -2.15897493674845     -4.59434091819965
  Br          1.03584945193939      0.47972012497217     -2.90777188349195
  Cl         -0.63406259287372      5.02862529561358      3.49323401575303
  Cl          2.02774148799647      3.86391398763135      3.07991933435000
  Cl          0.49909450697368      4.82398342165091      0.75501037445985
  O           1.07820147966529     -3.68544786564225      0.33025893194330
  O           1.28028411803146     -1.90961561559594      1.51954315753973
