22
Coordinates from ORCA-job NEB_reactant E -58.391189669320
  C           2.45556951747301     -0.00925191934848     -0.25019591158964
  C           1.91077529958940     -0.39510835571004      0.91776490832950
  C           2.43404524507031     -0.92208045545729     -1.40842001617465
  H           2.92712287965380      0.94968997653467     -0.37015854438136
  C           1.92136941841032      0.48586412541607      2.13783380575178
  C           0.22885694041302     -4.56524309305887      2.60518310846789
  C           0.43999355689450     -3.63034237075004      1.68930559873254
  C           0.59968674881946     -2.17726819045479      1.98455972700123
  O           1.40453351747406     -1.63663489824294      0.94827036239981
  N           0.05160951030446     -5.94339672115079      2.23164093892646
  H           0.17114724536138     -4.39946630592427      3.67028942001735
  H           0.49131305607604     -3.91241756923880      0.64433995418816
  H           1.04376518272245     -2.02123204726816      2.97108886064899
  H          -0.39257705512934     -1.70432919247483      1.95979625216254
  Br          0.59770917265331     -1.44925403969531     -1.86994456883944
  Br          3.22652491105279     -0.09496355457689     -2.97048451849887
  Br          3.42194884331839     -2.58478359546967     -1.02514365954048
  Cl          2.84986017372823     -0.32108737886144      3.44475670958247
  Cl          2.68484632739607      2.05712840813417      1.84132000057940
  Cl          0.25338515725444      0.80824096653737      2.69997328177576
  O           0.05867164353213     -6.22456944060825      1.05628994071579
  O          -0.09315729206825     -6.72829434833140      3.14183434974478
