20
Coordinates from ORCA-job NEB E -41.245221463800
  C           0.11387504812914     -0.39781224474095     -0.79547651383157
  C           1.05291791287134      0.03364912999096      0.17999002836828
  C          -0.02912545141413      0.24044005649221     -2.13941024532083
  H           0.10930801510645     -1.47866094862264     -0.90411713304739
  C           1.59742107646210      1.42815896084786      0.23442752326947
  C          -1.58679187773079     -0.39116211766231      0.20594259291391
  C          -1.23422170980406     -0.45596589402580      1.56692089477545
  C          -0.25984738115915     -1.37945041052080      1.94109233053637
  O           1.21323252725803     -0.71432981532890      1.19545890983700
  Cl         -2.54989318705140      0.97720477725828     -0.26112087601500
  H          -1.95133029963175     -1.28567245902018     -0.28441483205915
  H          -1.30458803679787      0.45901433334016      2.13952985380143
  H          -0.25024717556938     -2.34747687901475      1.45796871032510
  H           0.07272987193482     -1.39517900400726      2.96786319621510
  Cl          1.48483321907912     -0.07716207399524     -3.07852734239594
  Cl         -1.36561614573315     -0.52498729316620     -3.04026146249592
  Cl         -0.29423370838576      1.98564934474521     -2.15270290010362
  H           0.78664785663189      2.13266888646808      0.41848947958234
  H           2.08114371208924      1.69578968802885     -0.70069842475370
  H           2.31378573371531      1.49528396293340      1.04904621039866
