20
Coordinates from ORCA-job NEB_reactant E -41.292487911140
  C           1.25984796730509     -0.86330511464011     -0.02569424323646
  C           2.09790581244131     -1.43040056132173      0.85706526643897
  C           1.66470371355106     -0.26566692681777     -1.31391635035062
  H           0.20372688804457     -0.79159897118329      0.17375736380857
  C           3.57476472253428     -1.57172241168831      0.66527410150894
  C          -1.05754502353699     -4.01356312265543      2.38966934196067
  C          -0.40368023565218     -3.06539029777013      1.74051457066172
  C           0.36844392093483     -1.98499762773000      2.44067405948952
  O           1.72838451091792     -1.95266881961530      2.04265115830809
  Cl         -1.94252306117346     -5.24616466686109      1.59095338311225
  H          -1.10128771914960     -4.07572781468084      3.46661403948080
  H          -0.37819049422373     -3.05260743021082      0.66111537358035
  H           0.39792017581279     -2.17736689296987      3.51582380667496
  H          -0.09915592543890     -1.00602863314767      2.27071592332179
  Cl          2.56184339373189     -1.40686738814164     -2.35862398993553
  Cl          0.23014486902307      0.26352294923146     -2.21972271327989
  Cl          2.71191386586414      1.18618062470852     -1.09515126021779
  H           4.03036345814813     -1.80456583099986      1.62364819728890
  H           4.00613843414814     -0.66026669176791      0.26387148524463
  H           3.78388072671764     -2.38499437173820     -0.02653951385986
