20
Coordinates from ORCA-job NEB_product E -41.292766538360
  C           1.46570440650288     -0.94692328214345      1.36386387061026
  C           2.93645249586254     -1.44823770264246      1.37421942195072
  C           1.15679487273009     -0.18821108739953      0.07429911743414
  H           1.44485570532514     -0.18691080326191      2.15744708536992
  C           3.25766540960775     -2.75503513900600      0.72612829194840
  C           0.38132100839293     -1.98206854561737      1.71889983843260
  C          -0.02140570805942     -2.96740896190044      0.67482077361845
  C          -1.26650447441747     -3.07195373468648      0.24490586307569
  O           3.76062463572084     -0.76328048157855      1.91363837531238
  Cl          0.96665027169449     -2.88666111669197      3.17046880490273
  H          -0.50669938103302     -1.44139406651117      2.05791546370007
  H           0.73979630792763     -3.64011786696036      0.31453372199046
  H          -2.04974429377491     -2.42251919794278      0.59919180063895
  H          -1.54652972548215     -3.80308670993705     -0.49265927267597
  Cl          1.20199279616774     -1.19548115968575     -1.38194521478768
  Cl         -0.47484715242095      0.53446028124996      0.16623489286565
  Cl          2.32984966652622      1.13732877154195     -0.14141277861361
  H           2.81390827093508     -3.56188070927389      1.30559064137613
  H           4.33743159799781     -2.88451821427514      0.71617639930639
  H           2.87098328979680     -2.79550027327762     -0.28781709645566
