21
Coordinates from ORCA-job NEB_product E -32.493017669330
  C           3.05191359797523     -0.53359450263334     -1.76804598907641
  C           1.59620255537197     -0.93777795824270     -1.79486807260108
  I           3.40431288231764      0.29494520399176      0.20243308638809
  H           3.71118163179715     -1.40051154905912     -1.81084093250277
  C           1.29061363797534     -2.24237968323877     -1.09723595503004
  C           3.46527729072021      0.46332451601606     -2.84320531945590
  C           2.65659631809428      1.72795443135523     -2.84166230649013
  C           2.10011593540385      2.24106597378350     -3.92151631777267
  O           0.75773584630691     -0.28321234145433     -2.35855402284105
  O           4.83839561927989      0.72630581575841     -2.61783142506434
  H           3.33791292666176     -0.04485852959190     -3.81701682271756
  H           2.60481657530372      2.24070088103486     -1.89097716195427
  H           2.14601780171884      1.74501462175356     -4.87753472971080
  H           1.55221426181336      3.16628464915872     -3.88783581275424
  C           1.42353775379379     -3.38308813564904     -2.11061674824181
  H           0.26478319582842     -2.20791466555632     -0.72755575091046
  H           1.96973735757262     -2.40818225480479     -0.26032548487114
  H           0.75040706409682     -3.22152350333869     -2.94930426655274
  H           1.16906516771584     -4.32821080224056     -1.63801157752181
  H           2.44083663672814     -3.45116126396739     -2.49118822771712
  H           5.10202594352420      1.49971909692486     -3.12720616260173
