20
Coordinates from ORCA-job NEB_reactant E -42.580897586540
  C           2.05507105628209      0.14226528368595     -0.49737819335442
  C           1.46639788435765     -0.62164629148905     -1.43246564370364
  C           1.94556970709719      1.53398668733030     -0.35472098750594
  H           2.67811021109023     -0.33148107298517      0.24830227702252
  C           1.70452185371526     -2.12408178963659     -1.43660147970691
  C           2.66650059869566      1.18700961637565     -3.84242445183838
  C           1.65269052198751      1.78428834139769     -3.21561166991368
  C           0.41943260646307      1.05580696865968     -2.76984162399671
  O           0.66182025593620     -0.31387928416960     -2.44960091233573
  N           3.85841126681473      1.79023402587359     -4.15911779247630
  H           2.62936150703073      0.12945401032618     -4.07126131235211
  H           1.69020294209729      2.83473509527740     -2.97479830294367
  H          -0.32712101043645      0.99586990544203     -3.57003212440524
  H          -0.03098354792728      1.56338905522579     -1.91000652088538
  N           1.89383978572747      2.66309291738884     -0.15419411283681
  F           0.55970489496972     -2.81391332032884     -1.43189838437874
  F           2.38204021108574     -2.50143812329969     -2.53143197316142
  F           2.41473355700895     -2.54466143367295     -0.38380442391942
  H           3.86442718195348      2.79734004531688     -4.11152456882910
  H           4.37246851605077      1.40262936328191     -4.93238779847892
