20
Coordinates from ORCA-job NEB_product E -42.561874038370
  C           2.68032823282832      0.04385536085754     -2.02117068532738
  C           1.68341740402135     -1.08559836516965     -2.08570642680148
  C           2.65682074351721      0.69336366227782     -0.72847294843207
  H           3.68598112137401     -0.38536703603521     -2.14660402634546
  C           1.75386787714912     -2.04757538872374     -0.85891005917222
  C           2.45400991886388      1.07536543485515     -3.16236730351809
  C           1.18319295286587      1.85040352020568     -2.93011198469069
  C           0.15255094727640      1.83247188496457     -3.75316453364563
  O           0.89810469042627     -1.28211975178894     -2.96162787152055
  N           3.64904620549108      1.90060038120595     -3.23989732964793
  H           2.37484789604193      0.51271056437134     -4.09936161306295
  H           1.17669125055912      2.46284041792350     -2.03680922422088
  H           0.14826421825297      1.22216854720869     -4.64093458583930
  H          -0.73219461288033      2.41615951236761     -3.56659876667796
  N           2.63482203159730      1.25495519704023      0.26494140001247
  F           1.03396429935527     -1.57023457467442      0.16228340195029
  F           1.28213721401849     -3.25563397678143     -1.15826425550007
  F           3.01218097309015     -2.20620463821675     -0.42238601786453
  H           3.72250143416141      2.49960959726483     -2.42271898813748
  H           3.61476520199022      2.49502965084724     -4.05951818155807
