18
Coordinates from ORCA-job NEB_reactant E -29.767442652110
  C           1.78958980242311      0.12295736193107      0.12790499561073
  C           1.20865122869188     -1.04513804225001     -0.18800598591903
  C           2.27976372392837      1.10634370686701     -0.87305578298191
  H           1.90912718034101      0.36572638477182      1.17325523805582
  C           0.77961552545500     -1.90654326132487      0.85293330021950
  C           0.66632734965792     -3.96668156091452     -3.80192553860535
  C           0.27556436565465     -2.87079828278113     -3.18325672822446
  C           0.40704122225439     -2.67873841810715     -1.70477315774822
  O           1.02057815795102     -1.42224801261002     -1.49141209287056
  I           0.45256580506219     -4.25167859833270     -5.87030693122212
  H           1.10524896314681     -4.81125679252242     -3.29789965747757
  H          -0.15386633098051     -2.03509775764891     -3.71578002742152
  H           1.00188341412957     -3.48557692936066     -1.25461332958018
  H          -0.59461291141693     -2.69311793760800     -1.24527982970290
  H           2.10685341163308      0.74232704190162     -1.88142207288367
  H           3.34587416109405      1.28348798563889     -0.73198975160807
  H           1.76937343213587      2.06031572351739     -0.74115641326290
  N           0.43132149883852     -2.59668261116739      1.70108376562238
