21
Coordinates from ORCA-job NEB_product E -42.294249565030
  C           1.35564017931247     -1.04059538953022     -0.96198712337313
  C           1.66683910761211     -1.60467398100291      0.41256797260229
  C           2.02785599727707      0.28059554172853     -1.35219613123563
  H           0.27066324236521     -0.88132480002993     -0.98038324594803
  C           2.83710393544502     -1.01580086384400      1.23499850259474
  C           1.67561937700703     -2.15694201779311     -2.00565869037960
  C           0.56450129452237     -3.17040699448177     -2.09622261770798
  C          -0.02996824938183     -3.49208124272276     -3.22863717159011
  O           1.00727686154401     -2.47841518878786      0.90396731652715
  C           2.88883914578882     -2.85449320411578     -1.62494952821747
  H           1.84176807589746     -1.69102313948402     -2.98339683418100
  H           0.28753611926104     -3.63181763501363     -1.15887125382779
  H          -0.81772110401623     -4.22405806412152     -3.26159798193100
  H           0.24656685906618     -3.04462264126535     -4.16993391529270
  F           3.25496289014059      0.07775172926240     -1.92067976275627
  H           2.16801981994371      0.94846091698374     -0.49781788223687
  H           1.42181926178524      0.78731549234062     -2.11258089268944
  F           3.93128725353400     -0.74360288597549      0.51024506398818
  F           2.41703061338235      0.16489953275192      1.77004735450591
  H           3.10778872456123     -1.69120545132700      2.06006268478178
  N           3.81447059495219     -3.44025971357187     -1.30297586363305
