21
Coordinates from ORCA-job NEB E -55.496291404380
  C           0.24553779113455     -1.06477740410403      0.12266101084269
  C          -0.84646067542717     -1.10786059703684     -0.75309953636515
  N          -0.09610147334093     -1.09930248289326      1.54870707578937
  H           1.08825530751145     -1.71333714589473     -0.11187143102825
  N          -0.70008728254890     -1.82793074342658     -2.01049451140251
  C           0.73364697484741      0.81286089113573     -0.04954629663219
  C          -0.45531918961900      1.41410548980561      0.34728456930086
  C          -1.68033907075766      1.12460493691441     -0.39953141104315
  O          -1.88107165769240     -0.31115512039233     -0.67615399206195
  C           1.97573172444719      1.08076798143510      0.77313487233464
  H           0.98865862110490      0.73234202528521     -1.10080540474859
  H          -0.53192343299272      1.89321124454493      1.31018324784981
  H          -1.67587240845387      1.56633694704350     -1.40200918652715
  H          -2.57559290740414      1.43382642056604      0.13744712712910
  O           0.49268422593499     -1.91542575165468      2.20435852814151
  O          -0.96824898270078     -0.35269139139078      1.92040362563653
  O          -1.48861557502321     -1.56030820793340     -2.88443119536388
  O           0.20929015199075     -2.62703714874662     -2.07577724663460
  F           1.73833243167522      1.07062132133780      2.08714217275475
  F           2.92829073311156      0.17189011754946      0.53457747102373
  F           2.49920469420276      2.27925861785547      0.47782051100443
