21
Coordinates from ORCA-job NEB_reactant E -55.523314332880
  C           1.96916058007556      0.42253147591577      0.18005877211236
  C           1.41422704923382      1.02362114310061     -0.88564972771820
  N           2.08639222346693      0.92541878872661      1.50857191256670
  H           2.38962283264913     -0.56629636314210      0.04627315985037
  N           1.34483439083295      0.18746568080709     -2.14157818690700
  C           3.16328286612140      4.01159600413865      0.98574196822583
  C           2.62066224980877      3.62933358974649     -0.15829357483086
  C           1.16063405506506      3.34620951801673     -0.33067655874288
  O           0.93493077439151      2.21240607540144     -1.16229068711932
  C           4.61909925664353      4.34904222226546      1.10632588342143
  H           2.59867568479768      4.13462439835427      1.89805417125705
  H           3.22660486190364      3.50985019784641     -1.04811161766789
  H           0.68901373745181      4.16684936820658     -0.88055436467274
  H           0.66994226518724      3.22026610674408      0.64127123278901
  O           3.02657394432708      0.53265475724625      2.15541114438355
  O           1.22968620684656      1.69033338802923      1.91025962679615
  O           1.02839519599200      0.76867145904843     -3.13865291559865
  O           1.60880248734774     -0.97915596518209     -2.03024162340363
  F           5.34911206284103      3.87294129545941      0.08719483317741
  F           4.81433927362980      5.67997895808084      1.12519901615376
  F           5.15600800138678      3.86805790118985      2.23108753592756
