21
Coordinates from ORCA-job NEB_product E -55.517857273050
  C           3.00148402571253      1.42355579029479     -0.11617736812913
  C           1.68596657635659      0.97410531385101     -0.69348148985351
  N           3.27814541975802      0.60416735576218      1.12739783115354
  H           3.81651613658361      1.22184976339433     -0.82522300965509
  N           1.52146882452064      1.41541144388583     -2.18310963059698
  C           2.94319490682689      2.94633911383962      0.17346200017326
  C           1.77046229908500      3.35461140911304      1.02753955095592
  C           0.86108853602353      4.21725016897871      0.61624072437488
  O           0.80331381002569      0.37206165968935     -0.19972796675825
  C           4.25476355037734      3.40293011771283      0.82910823899415
  H           2.90496031836622      3.46446567003211     -0.79373173364618
  H           1.71984704831101      2.90171744496868      2.00691514211934
  H           0.90390569122697      4.68038346008695     -0.35657327937155
  H           0.03770146985344      4.50019815796213      1.24669934387547
  O           4.25011154224972     -0.09464974234706      1.06677902724769
  O           2.50460889399947      0.70505345577601      2.03377245262074
  O           0.50887756235664      1.06080533575949     -2.70674216891087
  O           2.41428585965933      2.07852253690758     -2.64865942752035
  F           4.43301239812069      2.89461766509184      2.05103625313776
  F           5.31932030374528      3.04195371629952      0.09951498293640
  F           4.28736482684141      4.73135016294107      0.94266052685277
