21
Coordinates from ORCA-job NEB E -33.204864646480
  C          -0.50246654779811     -1.34024624628457      0.76648376383278
  C          -1.83947238471806     -0.96227008938841      0.70012172300015
  Cl          0.39143847063976     -0.91035080727321      2.18373899220855
  H          -0.22983232561855     -2.31147608369946      0.37638469086825
  O          -2.61125940728035     -1.67380522214972     -0.17725351310269
  C           0.17498074023744      0.01368033356531     -0.64265004150748
  C          -0.25735481000686      1.18944619581704     -0.05188227071423
  C          -1.64552759937932      1.42339220139554      0.06633937443983
  O          -2.24764769242713      0.18585650287641      1.08550957590989
  C           1.63166461991452     -0.31420027331892     -0.86122850730143
  H          -0.46197678872324     -0.41103895415324     -1.41430152048422
  H           0.39814945075920      1.70722510712534      0.62999989560524
  H          -2.25955203579719      1.21302355053416     -0.80392633486151
  H          -1.96541271731527      2.29618497408856      0.61776284250851
  H          -3.45769022248657     -1.21738273655815     -0.28201341626086
  C           2.62187726642522      0.51051669650525     -0.04832287028235
  H           1.83369426606121     -0.15805031622019     -1.92645585264527
  H           1.79953547064993     -1.37484073607397     -0.66427777494380
  H           2.54577410209249      1.56462276413481     -0.30318652723841
  H           3.63462903457254      0.17978048696974     -0.26709132114070
  H           2.44644911019835      0.38993265210766      1.01624909210976
