21
Coordinates from ORCA-job NEB_product E -33.259737077230
  C           3.24492162304856      0.03361331063765     -1.80021596479418
  C           1.74195108230350     -0.10336799518308     -1.64093517217767
  Cl          3.90348622720722      0.02561436641949     -0.14003368866941
  H           3.64002159836092     -0.85218284722796     -2.30248869625393
  O           1.29520213889418     -1.20652944297940     -2.25104758963132
  C           3.56904370947188      1.30570079208750     -2.59959828250373
  C           3.25070987382309      2.54991771244978     -1.82356504410773
  C           2.54564812172415      3.55309978405242     -2.30913783107120
  O           1.02574100930210      0.66339988926900     -1.06468387421440
  C           5.01043401221457      1.31936639041187     -3.14535352623272
  H           2.90781876212808      1.26914335132760     -3.47651401265892
  H           3.64771784842704      2.59360268673906     -0.82071752187505
  H           2.13121572301614      3.53078311219347     -3.30437396667512
  H           2.34814916166905      4.43909765710763     -1.73155947282070
  H           0.33342309516346     -1.29236012784709     -2.14484712487911
  C           6.10648194564408      1.49955050199480     -2.10289277116102
  H           5.07118290278698      2.14116814768578     -3.86277831676264
  H           5.18108288392033      0.38890063325409     -3.69281187272412
  H           5.97326547381221      2.43203650524763     -1.56168570394195
  H           7.07445094879624      1.52950998509661     -2.59875450431192
  H           6.11395185828622      0.68073558726314     -1.39070506253315
