21
Coordinates from ORCA-job NEB_reactant E -33.234427286190
  C           2.09976310889398     -0.24381385123096     -0.57298007653257
  C           1.37343471778203      0.17482195415699     -1.61019047276036
  Cl          3.19958076453224      0.68030423301323      0.38005279423989
  H           2.01842916057661     -1.27401778344152     -0.27581996162725
  O           0.56727798867753     -0.73604616826692     -2.21250702772669
  C           4.00106116722550      1.37733342963199     -2.99993602552706
  C           3.51673905685494      2.30484311731613     -2.19237618767925
  C           2.06205333726600      2.47486672726503     -1.86036805113733
  O           1.24204514767505      1.37498702019869     -2.21951693758010
  C           5.44068390490571      1.15915374472336     -3.34484073216497
  H           3.32499137137965      0.67461824730945     -3.47205138228357
  H           4.15562489144478      3.02451651016666     -1.70494202840920
  H           1.64387465801647      3.30966750125878     -2.43585794921098
  H           1.94264960171540      2.70380601070800     -0.79573443792774
  H           0.08795764989784     -0.28050002061442     -2.91861402992898
  C           6.41719989888480      2.11023025556159     -2.66705031888862
  H           5.54615547917889      1.23902750756723     -4.43183250973780
  H           5.69609348813301      0.12822621950755     -3.07944027483998
  H           6.21336284714759      3.13986867238469     -2.95123544027677
  H           7.43562729273373      1.86905598609205     -2.96294512260805
  H           6.34499446707826      2.02375068669239     -1.58571382739264
