21
Coordinates from ORCA-job NEB E -36.681691051690
  C          -0.62312238126997      1.16985725415481     -0.63045042618981
  C          -1.86796358111741      0.93935850705788     -0.06941133410801
  C          -0.31934349135908      0.41547412955162     -1.90074636940472
  H          -0.20059965432735      2.16622812795629     -0.60364495319045
  I          -2.58853896785837      2.48750941725083      1.29467169301272
  C           0.47033260428967      0.24441691337087      0.90164326200059
  C          -0.12193403170878     -1.02280238014077      0.83390831379162
  C          -1.44668657153799     -1.18645638013534      1.22556541678928
  O          -2.39586189191343     -0.18256978970158      0.02481502987813
  O           1.76001165706078      0.52024427211186      0.65610530660062
  H           0.09933526233795      0.94563843970878      1.64434795080253
  H           0.32494477760024     -1.77323874270024      0.19845355046555
  H          -1.81496996156111     -0.63347962487213      2.07908716954256
  H          -1.91941672796932     -2.14420633282478      1.07440428785804
  F           0.99640231190002      0.53636645405135     -2.26061415728770
  H          -0.89965708165076      0.84405420501765     -2.72878766798635
  H          -0.54612748007235     -0.65135933294955     -1.81364947661131
  C           2.59622114052874     -0.48695660563245      0.11765615840732
  H           2.62635425888117     -1.35710442706637      0.78006662255688
  H           3.58512536088631     -0.03747998918482      0.05808199786502
  H           2.28549444886105     -0.79349411502392     -0.88150237479249
