19
Coordinates from ORCA-job NEB E -41.214435728310
  C           0.77103350615454     -0.58044260781207     -0.65043539517548
  C          -0.49908048983270     -0.14284450716078     -1.07877089099437
  C           0.88836091680721     -1.90586271375536     -0.16213296167800
  H           1.64902650160946     -0.23558488012401     -1.18982852832511
  C          -0.57193330693070      0.92381408628090     -2.15639485844056
  C           0.93197162188791      0.32333370472402      1.15038711968993
  C          -0.27819170877335     -0.10880191707783      1.72513593518802
  C          -1.49540411374752      0.33343814490623      1.23399457479967
  O          -1.55259391631973     -0.41545237036958     -0.45009834015049
  O           2.12701187749176     -0.07193922597099      1.61308853344509
  H           1.00081657543008      1.33518504384690      0.76112105608111
  H          -0.25284988811309     -1.02150701264582      2.30710155100018
  H          -1.58985675031037      1.34873783145408      0.87433688592523
  H          -2.40409908417347     -0.09121585364348      1.62923021441685
  N           0.99160468485855     -2.96369816486939      0.26275286420760
  Br          0.07177869868286      0.18266363332410     -3.85325390930039
  Br         -2.40031478516544      1.51813763702588     -2.35946953508722
  Br          0.54591844774617      2.49478474407317     -1.72968422940737
  H           2.06680121269783     -0.92274557220599      2.07291991380534
