19
Coordinates from ORCA-job NEB_reactant E -41.247859811870
  C           2.03261208585364      0.31585654480180      0.25709881502545
  C           1.47604185746193      1.53610505182257      0.32537393129050
  C           2.06915749048937     -0.64800182807287      1.27563024412348
  H           2.51576048344491     -0.00721783986576     -0.65430525624621
  C           1.46498063183063      2.49188728142938     -0.83351384097221
  C           3.02089744478596      2.10985100987021      3.16914474692275
  C           1.96810917231130      1.31804881262273      3.33037839581907
  C           0.67548492644689      1.48342060042636      2.58783691088402
  O           0.82005781545830      2.12969344853087      1.33080819550497
  O           4.20182805204884      1.98599107608427      3.80071187239099
  H           3.02773730831581      2.95276318282431      2.49152510256010
  H           1.99864897566336      0.48696063151600      4.01966474202671
  H          -0.01164296934312      2.14027087272117      3.13326856115698
  H           0.19129963037619      0.50973946241787      2.45151969969010
  N           2.14183229438195     -1.49326158341266      2.04887517772111
  Br          2.50168739448323      1.95532759400838     -2.36806147998521
  Br         -0.40288303637651      2.72910035041965     -1.40320617592828
  Br          2.13620072425707      4.22440993166202     -0.22304039179026
  H           4.18338971811025      1.22955540019370      4.40209074980595
