19
Coordinates from ORCA-job NEB_product E -41.233695979040
  C           2.62793342360625      1.00566188197538      1.02415142105971
  C           1.33340106224234      1.44918836309281      0.38997640296152
  C           2.66103158284673     -0.44190446039169      0.98577027337240
  H           3.51616427022030      1.38309812884592      0.50562296486499
  C           1.48330131565723      2.30980468893995     -0.85942823614928
  C           2.70434590186937      1.50027106593442      2.50240536086699
  C           1.60424382218068      0.90659920318388      3.33196072536907
  C           0.62847180571303      1.61962022605650      3.86153058372030
  O           0.24473826529721      1.19167279707352      0.81027951794467
  O           3.98853336592903      1.12766804255275      2.94276460473989
  H           2.61273698588708      2.60110212539339      2.48957935857849
  H           1.67072884418132     -0.16323440959276      3.47437593843763
  H           0.55887144067899      2.68604910282441      3.71759744217787
  H          -0.14710390458419      1.16432983034931      4.45108119860042
  N           2.67054763715433     -1.58142291196615      0.93957012424477
  Br          2.54290813004326      1.37684371693426     -2.20321613726836
  Br         -0.25571292175059      2.74451530118399     -1.57193624129265
  Br          2.39458606459964      3.95089613807410     -0.32261436383354
  H           4.04517290822798      1.24214116953600      3.89722906160512
