17
Coordinates from ORCA-job NEB_product E -33.067798116710
  C           1.69135149574550     -0.91660236855240      1.39302375468036
  C           0.83400093480138      0.21817028543634      0.90945777327087
  C           1.54869748652094     -2.06304172423767      0.38173933964394
  H           2.73809794463721     -0.59583164376114      1.43676589522235
  I           1.33451652519107      2.11886259767432      1.82173163086993
  C           1.23963491101193     -1.27763945479735      2.82471830471341
  C          -0.04962689697442     -2.02413381274482      2.87959162337697
  C          -1.16539332975058     -1.49222359157442      3.34316171375058
  O          -0.05310804306780      0.16361312557943      0.13168920669326
  Br          2.64952500787122     -2.33485499501928      3.72916564405813
  H           1.17840693733557     -0.36018433296902      3.41731807891534
  H          -0.01653626620716     -3.04894390410612      2.53753263445339
  H          -1.20793062861102     -0.47811461724736      3.70721425215911
  H          -2.08430777536438     -2.05027208895459      3.37511970685906
  F           2.28675479892714     -3.14426871087089      0.75897270888190
  H           1.91859866788549     -1.74545772721427     -0.59924987607277
  H           0.50631823004793     -2.38497703664075      0.29334760852419
