19
Coordinates from ORCA-job NEB E -41.342330305530
  C           0.92605229271712      0.26412998224958     -0.38265765971606
  C           0.14813266947707      1.09682034567535      0.46044394742031
  C           0.64480222063060      0.35406052731354     -1.85822339505017
  H           1.99882048103251      0.25402367260728     -0.21152025944519
  N           0.69152281336527      1.54788316343465      1.63933860984783
  C           0.24223486605675     -1.46376276492365      0.25355389687349
  C          -1.13731525051372     -1.37682415282276      0.08295567354275
  C          -1.80351804114469     -0.35143239532488      0.80134368717721
  O          -1.13327030742254      1.10771318424981      0.34554166616218
  I           1.29296819755886     -3.02443756671724     -0.73429077513533
  H           0.64608072402049     -1.34471420612151      1.25204379650102
  H          -1.58476821042138     -1.74193941578450     -0.82765621879558
  H          -1.59573063120508     -0.28456661300360      1.86604613638589
  H          -2.84622132373529     -0.19308679874464      0.56045617674433
  F           1.51262137579054     -0.36740708446476     -2.58030072810427
  F          -0.57601839803167     -0.00816502237925     -2.24767728205676
  F           0.80442840084731      1.63046603352890     -2.28444558529427
  H           0.09519547961211      2.14031602337821      2.19547774611433
  H           1.67398264136574      1.76092308784950      1.66957056682828
