18
Coordinates from ORCA-job NEB_product E -30.074314206480
  C           0.55893172686588     -0.95849567030503     -0.83165841206595
  C           1.54147163102324     -0.87368000465716      0.31513764594690
  O           1.17418211840191     -0.66687136494253     -2.05715704156401
  H          -0.27945503775576     -0.26865045266746     -0.63769048317168
  Cl          0.71400544614812     -0.68105735416937      1.86877909215651
  C           0.03691244012482     -2.40950610430356     -0.91459447160433
  C          -0.87833108428068     -2.76843355964517      0.21033752789521
  C          -0.69300598945266     -3.79621605445689      1.01689366884380
  O           2.72110961099525     -0.94227444572233      0.27405693459326
  H          -0.49708367072728     -2.48049069429788     -1.86579380861802
  H           0.89137300039505     -3.08604544910436     -0.95652868523016
  H          -1.74385465162454     -2.12949443864926      0.32665091155516
  H           0.16181168929689     -4.44522398740241      0.92059940220148
  H          -1.38596622645076     -4.03252460519168      1.80541227782121
  C           1.55682549862776      0.68112422646912     -2.21548898701355
  H           1.93237328666210      0.76670559538227     -3.23262156849043
  H           2.34575621089994      0.96504493452398     -1.51301780705981
  H           0.69874400085072      1.35138942913970     -2.08331619619561
