18
Coordinates from ORCA-job NEB_reactant E -30.050652020660
  C           1.16179386826438      0.03626630110797     -0.22180788258275
  C           1.08026139437163     -0.99277141915109      0.62175944996279
  O           1.48861401888929     -0.13020189760242     -1.53171746079951
  H           0.96724153501556      1.04362240341440      0.12290367334128
  Cl          0.54658198510613     -0.65506330660192      2.26067104281688
  C          -1.17058269701789     -4.18720343031268     -1.09998478637606
  C          -0.69892565153700     -3.16698790724592     -0.40995769160973
  C           0.43019961594134     -3.26358842196377      0.56896274911827
  O           1.42367980688049     -2.25834318808925      0.35217597837097
  H          -1.99424285870166     -4.07793695426915     -1.78402522365428
  H          -0.75793896966894     -5.17760104687978     -1.00037310153610
  H          -1.11710985868211     -2.17531217107901     -0.52165328044879
  H           0.96270641052251     -4.21070135331022      0.46803579184637
  H           0.04402467745093     -3.17236254444480      1.59491364820947
  C           1.86072251542260      1.04888702489249     -2.20680664427445
  H           1.99259401584520      0.77192288662871     -3.25087291897129
  H           2.80139917846312      1.45103414797996     -1.81643149112354
  H           1.08318101343442      1.81644087692651     -2.12829185228951
