14
Coordinates from ORCA-job NEB E -21.936288675150
  C          -0.04906262148439     -0.73553753940799     -2.17677502293132
  C          -0.61129663769747      0.39042955365360     -1.57271413400126
  I          -1.19352284385490     -1.61687648130138     -3.66400248631947
  H           0.93514909963950     -1.14477334075579     -2.01848784982488
  H           0.09436926906369      0.97093059537217     -0.94588722708766
  C           1.38432705668168      0.68867304077578      1.13177123683547
  C           0.18620181215087     -0.06935644718514      1.13239691203065
  C          -0.66658202729784     -0.20411887902771      2.14071741971780
  O          -1.77651348637909      0.72687395725873     -1.72903663594933
  H           1.51738464628577      1.64548472189861      0.65412408290620
  H           2.20774693930519      0.39499285720284      1.76901837817900
  H           0.00706351749836     -0.57258809795534      0.14379906727163
  H          -0.49730481484610      0.35575946039509      3.04322083034671
  H          -1.53795990906528     -0.82989340092347      2.09185542882646
