21
Coordinates from ORCA-job P E -32.970367070960
  C          -1.24668772539596      0.47474173110121     -2.34095820899175
  C          -0.57407496316282     -1.71634674356823     -0.45518870487728
  C          -1.36498963135899     -1.91778984351959     -1.70898471158919
  C          -1.67831201737840     -0.94753558731045     -2.54898497024737
  C          -0.89617527214688      0.72710755708340     -0.87416276281211
  C           0.09277942601756     -0.33832658871582     -0.39630431533315
  H          -1.68939490606097     -2.93102704388845     -1.89973238050197
  H          -2.24097953442984     -1.14651789004933     -3.44936332381651
  C          -2.34092811079023      1.43342707826526     -2.79612261936047
  H          -1.23877703179961     -1.83665593714263      0.40617102603062
  H          -0.36037972987707      0.66628809974072     -2.95765000690866
  H           0.18983537479151     -2.49447528131913     -0.38249871682495
  H          -1.80017446132417      0.67537290032767     -0.26396271972221
  H           0.35508596088922     -0.12250529430343      0.65832245627524
  H          -0.46296364659496      1.72249799394867     -0.76110296817368
  N           1.25894678624949     -0.32406157262752     -1.26653635427323
  F          -1.95525909407449      2.72590682341266     -2.63416126852437
  F          -2.60340874928215      1.29141316927072     -4.11897866488408
  H          -3.29008176684661      1.30118025634093     -2.25251196614417
  H           1.71162917988120      0.58290029489850     -1.23641923550281
  H           1.93335991269418     -1.02121412194519     -0.97281958381788
