21
Coordinates from ORCA-job R E -32.883695501460
  C          -1.31629603250301     -0.10318554731645     -2.92566635041278
  C          -0.42237197643811     -2.61060585582867     -1.50521882903285
  C          -1.67329635318196     -2.19714677318506     -1.66766917140379
  C          -2.05502908182322     -0.87556456337552     -2.13233474057789
  C          -0.98215783067638      1.04459105268281      0.39142760215081
  C           0.15015397171847      0.36976090983392      0.24255699748938
  H          -2.49682684906389     -2.85196415244577     -1.41239623424804
  H          -3.02796399246020     -0.52608562695169     -1.80948222527941
  C          -1.73862267876903      1.26302631215944     -3.34324178124028
  H          -0.19495744752465     -3.59885285900777     -1.14241101373419
  H          -0.35436998417933     -0.41917204034864     -3.29734960292271
  H           0.41264933040262     -1.95934409683895     -1.70032892475561
  H          -1.68177742390668      0.80404922767398      1.16965270494019
  H           0.40879853310154     -0.44071078973650      0.91134676324051
  H          -1.23873890800216      1.85665771592692     -0.26775202838233
  N           1.04341147848432      0.54418025476487     -0.80102739732465
  F          -0.79020990223614      2.18565277143532     -3.00805028330719
  F          -1.86837438726934      1.35968403590075     -4.69523463554938
  H          -2.69062920897266      1.59054759336613     -2.89797294865287
  H           0.89695693593039      1.39379161649954     -1.32767495598676
  H           2.01193180736942      0.38135081479135     -0.57200294501014
