20
Coordinates from ORCA-job NEB_reactant E -41.359825518810
  C           0.35363452575732      0.81961063517226     -0.84600958863914
  C           1.63703425548492      1.07229797693145     -1.09430762607122
  Br         -0.62955883979141      1.89702857247562      0.34467507439618
  H          -0.18726659429883     -0.00084602578098     -1.27880968622877
  C           2.43164935532818      0.22704278814666     -2.06003366360208
  C           2.05289889367970      3.81391602618213     -2.67044419675034
  C           3.23209288459617      3.40201660814743     -2.23444326946019
  C           3.43835105459929      2.64635806998172     -0.95416598750138
  O           2.26109833747367      2.07932409389488     -0.42434050974673
  C           1.86748867712350      4.57530830213976     -3.94782432613280
  H           1.14241297172205      3.65726938334458     -2.11128178994980
  H           4.13163124349748      3.60279065516373     -2.79957428978439
  H           3.77353633303566      3.34423690506327     -0.17838576014621
  H           4.22269331238193      1.88944343372479     -1.08585828317890
  F           1.64441589710071     -0.73606570662019     -2.62226572179993
  H           3.24992708427605     -0.29138731588026     -1.54291494788948
  H           2.83170481849654      0.83161078533763     -2.88425072377204
  F           1.51578478039071      5.86189065937023     -3.69240517454855
  F           3.00881272636863      4.63254892039606     -4.67616702528433
  H           1.08165828277775      4.14370523280922     -4.59079250390989
