23
Coordinates from ORCA-job NEB_reactant E -47.434574255580
  C           1.63092344362157     -0.20429777088132      0.08917171078946
  C           1.69785574787460     -1.41659169167070      0.66018977076610
  C           2.10132451333175      0.24622975331143     -1.25534676512080
  H           1.17186896937569      0.58455579386249      0.66576483810823
  C           1.12480274704078     -1.55850830527855      2.05684873365049
  C           2.57585493565628     -5.09701508951112     -2.05182470810763
  C           3.02375122092932     -4.30215222795365     -1.09459108269805
  C           2.73483013949244     -2.83603367059076     -1.02551549851022
  O           2.16524844847418     -2.59148494678525      0.26487397425399
  C           2.86664832525772     -6.55422587703289     -2.14353798920026
  H           1.96675327022999     -4.69024101700834     -2.84953403351340
  H           3.62619709012865     -4.68788900730366     -0.28454928357471
  H           2.03208821187599     -2.54479057921323     -1.80986944190584
  H           3.66272327650324     -2.26060055610453     -1.12270406354822
  F           3.42768242638911      0.01687475542062     -1.45593703961283
  F           1.46273231776998     -0.38753083438164     -2.27845451839309
  H           1.93439239986368      1.32417192587265     -1.38925032816085
  Br         -0.79889452764906     -1.20959500297907      2.03160693821133
  Br          1.40001533775316     -3.33135628437959      2.75487282063220
  Br          1.95641497570677     -0.29352811143336      3.28670963963442
  H           3.47275176444616     -6.88704792299813     -1.30550792390476
  H           3.39330320043281     -6.77210683693188     -3.07204863719596
  H           1.93553176549523     -7.11933649602953     -2.15456711259963
