95
Coordinates from ORCA-job A3S E -121.881006470810
  Ru          1.89818293016866      3.37753526962655      0.21136634572508
  H           0.25910333762379      2.50704216361512     -0.04705303709766
  N           2.46959150965322      2.03588892779495     -1.30014769970869
  C           2.17806194580453      2.24906802671812     -2.59296607685727
  C           3.15816194853633      0.89521388556305     -0.95028716906499
  C           2.53160650624925      1.38289148849320     -3.60245076664913
  C           3.56286937088017     -0.01454959724654     -1.97677397236681
  C           3.24996802716884      0.22028784320511     -3.27582777073773
  H           2.26601766126423      1.60030948014971     -4.62547631117094
  H           4.11517188030763     -0.89331861818152     -1.68076779875487
  H           3.54486582359062     -0.46626601974884     -4.05632860267413
  P           1.69883897132226      4.76602593850255     -1.63685175831396
  C           0.26076709080533      5.97770960264093     -1.92154881550969
  C           3.31830124729816      5.59552346680607     -2.19593202874639
  P           2.84560029342840      1.75271106804153      1.57762586673440
  N           4.20770985338144      2.14114771552911      2.53936654831778
  N           1.83373565673763      0.87366603411031      2.65737157687819
  C           1.42361698128844      3.50692566807448     -2.95072400802542
  H           0.34809575285848      3.29528768248611     -2.97184697634407
  H           1.71177441125696      3.86413245172653     -3.94336668748692
  C           3.45757104467536      0.63706150605165      0.37311719541239
  H           0.87141898441579      0.40691885028318      0.85124842056497
  H           4.06260032219197     -0.22036685815439      0.62630993571062
  C           1.34099816944640      4.53511852028237      1.52120403332763
  O           1.00767095923337      5.29907515928971      2.32892786211403
  H           3.28161329075768      3.94420127562536      0.35075416624520
  C          -0.14752118517279      6.17762357670520     -3.38051173085009
  C          -0.91977061715614      5.36561593652492     -1.16457146240264
  C           0.58164317659038      7.31633483981831     -1.25830213535478
  H          -0.51313453563260      5.25312997261969     -3.82159545659298
  H          -0.95763915040305      6.90589476601475     -3.42147399958603
  H           0.66654758361192      6.55260505174706     -3.99051359681212
  H          -0.68739318674123      5.31568779960257     -0.10100377566219
  H          -1.81091502750201      5.97983607400945     -1.28947839717883
  H          -1.14924523219778      4.36452817750152     -1.52561428514357
  H           1.01267730566294      7.14921517104542     -0.27097711294138
  H           1.27180591864452      7.90768086804004     -1.85295289791783
  H          -0.33262350612765      7.89704668013376     -1.13703550691286
  C           4.34377696501002      4.47013010011397     -2.37355929379164
  C           3.23701396132602      6.37032839233405     -3.51092663637644
  C           3.80434833522830      6.52240270766531     -1.07739285632611
  H           4.10395657177810      3.83671554536059     -3.22501573282214
  H           5.33090993471291      4.89889858061031     -2.54283383915092
  H           4.39526143326304      3.84788900135348     -1.47990256155801
  H           2.62609570716004      7.26416083006585     -3.42144838714567
  H           4.24154135766359      6.68767527934742     -3.79034827461082
  H           2.85180892090871      5.75289716871056     -4.32008109051881
  H           3.28592197642427      7.47596446377657     -1.08618001235190
  H           3.64707629829219      6.05112794145364     -0.10596933876090
  H           4.86877933208207      6.71978232656405     -1.19468986481202
  C           2.12402460490573     -0.45574453416016      3.21072108805942
  C           1.67875873950410     -1.56125090542026      2.25062417980235
  C           3.58123700345302     -0.64507668871164      3.61892078334362
  C           0.87022127894639      1.61627566847008      3.44976114144687
  H           1.51557879906836     -0.54728636951175      4.12074763288591
  H           0.61029903309467     -1.49347273702819      2.05941172899835
  H           2.20552998412684     -1.48422861204816      1.30419732479036
  H           1.88525871327296     -2.53515055345343      2.68926991892361
  H           3.88480672853168      0.13354057570379      4.31312762973680
  H           3.70279911955215     -1.61313893168188      4.10144510235666
  H           4.22571043577932     -0.60171073318089      2.74834465455540
  H          -0.09862647147577      1.10657765868100      3.44792079410792
  H           1.18299391886473      1.73075007681952      4.49441073990920
  H           0.74075952000715      2.61100697646269      3.01890853793329
  C           5.51954982989591      2.26974531833686      1.91100964575493
  C           5.95616096038184      3.71188473243626      1.64941475171927
  C           6.57621345121070      1.54747052063266      2.75185359484929
  C           3.93992793045277      3.09020441728714      3.60581223779077
  H           5.43574076360176      1.75793169956829      0.94371395147539
  H           6.19765043826620      4.22732498078916      2.57566411371240
  H           6.83846813803510      3.71399517478023      1.01400918867180
  H           5.16136396342036      4.25436511330433      1.14160437595510
  H           6.29891827212220      0.50866631769251      2.90520221861030
  H           7.53636780237379      1.58109730120531      2.24287067892418
  H           6.68923081125223      2.02019298347351      3.72479670166512
  H           4.79512990246180      3.13800039897685      4.28022129633352
  H           3.07816058602923      2.75126994208290      4.17667182430857
  H           3.72423861926729      4.09796889701750      3.22973193411530
  C          -0.41524010516530      1.56843744948462     -0.04456766112206
  O           0.35058581633128      0.40474254851013      0.02731958992098
  C          -1.40505100798476      1.68167903462903      1.09538387958955
  C          -1.73256859338797      2.89688375644773      1.67582575692972
  C          -2.66570079588934      2.95796430615696      2.69557262320200
  C          -3.28047452446491      1.80203783351953      3.14485027922898
  C          -2.95806182430150      0.58381541220487      2.57026598027695
  C          -2.02776852110464      0.52436338273051      1.54932300637575
  C          -1.19056956312738      1.48311680217876     -1.36240321164983
  H          -1.24327619524439      3.80091757373005      1.34088162798608
  H          -2.90748096667776      3.91032552450466      3.14325984967146
  H          -4.00631296209423      1.84940928444431      3.94303055394638
  H          -3.43182156933272     -0.32234653227455      2.91873187407743
  H          -1.76649748377023     -0.42233707783068      1.09841231785532
  H          -1.83786731490731      0.60954911969176     -1.31808767403503
  H          -0.49876034220109      1.34479687385626     -2.18992683000476
  H          -1.80707323085098      2.36437383708880     -1.52032395892563
