95
Coordinates from ORCA-job TSA2R_3R E -121.858428940730
  Ru         -0.84783199927028      0.72718967859561      0.65797724054513
  H          -1.42287067333010     -0.68829185091068      0.89865878568613
  N           0.28789565575011      0.01061964619610     -0.91372797971455
  C          -0.23375681654260     -0.20940404852005     -2.13046426030991
  C           1.64233869142359     -0.09506615373439     -0.74923965339653
  C           0.54176321877742     -0.47815827180167     -3.24127748265112
  C           2.47764053682286     -0.28745571031770     -1.88064520292807
  C           1.93510322075569     -0.47129321853556     -3.11777001619024
  H           0.07544265183292     -0.65297312645478     -4.19775248784023
  H           3.54549712465709     -0.30275852348704     -1.72744579474465
  H           2.55800630518483     -0.62779652822594     -3.98496063514049
  P          -2.38325176141527      1.05461944031206     -1.02931157691846
  C          -4.20365454719591      0.52526674409218     -0.86630400699469
  C          -2.30135654154616      2.68278740764784     -2.02109252890322
  P           1.04765732561120      0.27291235475313      1.87679457077542
  N           1.89787546066276      1.44312749649834      2.79050026021993
  N           1.07896051256221     -1.10567574065431      2.89375186912575
  C          -1.73084526239720     -0.17709342284511     -2.24550622076008
  H          -2.12370955292574     -1.14907446901543     -1.91963749055619
  H          -2.05325316939309      0.00567818752235     -3.27390305395151
  C           2.17839736305078     -0.08697791386722      0.54370435905287
  H           1.98679864511950     -1.92877820378880      0.84076124040579
  H           3.25036931862697     -0.00084214363288      0.65617812256411
  C          -1.84215140880309      1.46755321728178      2.02056339840548
  O          -2.45906906746213      1.97467070402135      2.85885215913421
  H          -0.16333233298800      2.09678679344286      0.42394907224401
  C          -4.86780991121996      0.06725236379461     -2.16560580906922
  C          -4.23685190011736     -0.64788059972876      0.11595863853286
  C          -4.98637209714961      1.67568123631932     -0.23205629412963
  H          -4.36403994589095     -0.80148649248983     -2.58239850258175
  H          -5.89623356789559     -0.22073188046033     -1.94735924656272
  H          -4.89732626721962      0.84549714361714     -2.91890540224897
  H          -3.84218698336392     -0.34462564134262      1.08395578376466
  H          -5.26409149988931     -0.98619457408992      0.25026413063310
  H          -3.64809064605042     -1.49057434972313     -0.24221397721724
  H          -4.42364241412237      2.08783182302690      0.60688841817703
  H          -5.19370376743581      2.46813899238175     -0.94671695766786
  H          -5.94173270693222      1.31213238941875      0.14625782786231
  C          -0.87335683088088      2.78296340743417     -2.56721126561450
  C          -3.26447692636446      2.80782569788579     -3.19981824540253
  C          -2.51877980600360      3.83647569989524     -1.03939964997179
  H          -0.69956557255071      2.08004190667300     -3.37974470265244
  H          -0.69729941746224      3.78725441273952     -2.95123750071455
  H          -0.14600655085987      2.59823305415904     -1.77731485223172
  H          -4.29541236438737      2.90727324787458     -2.87560121788862
  H          -3.01247275183897      3.70629394478384     -3.76192898150274
  H          -3.18025993670583      1.96297915706909     -3.87871139259713
  H          -3.55826593400249      3.92522160680233     -0.73919622155968
  H          -1.91357063476322      3.68129341544743     -0.14589585892918
  H          -2.21880950844996      4.77856648924420     -1.49754768591249
  C           2.22414428638225     -1.60524111084649      3.66624457462751
  C           2.17407605738259     -3.13598078099327      3.74698794690661
  C           3.58029136678164     -1.19781176853517      3.10785352982049
  C          -0.17444708213381     -1.40498234503257      3.57483365502868
  H           2.15394465664505     -1.21077176293531      4.69515257238801
  H           2.17150255281660     -3.56198494066851      2.74647477065796
  H           1.29801089299934     -3.48651611781183      4.28553295208180
  H           3.05670184212959     -3.49601851384642      4.27070865242891
  H           3.61446347785638     -0.12707743872899      2.94897140609271
  H           4.34957161618191     -1.46493590321714      3.82880024928129
  H           3.78950079069025     -1.71966605257708      2.17926944879900
  H          -0.09664206112826     -1.25696872336975      4.65868331800041
  H          -0.96155726627837     -0.75389420496118      3.19122264342857
  H          -0.47139814321013     -2.44064812219524      3.39143292625499
  C           2.47943516174573      2.57970214767588      2.07799015233148
  C           1.68290844330252      3.87723772821377      2.19849851475309
  C           3.91806110619777      2.79757038736755      2.55123660120162
  C           1.27489480236597      1.76112164662243      4.06551464485036
  H           2.50102115725235      2.29557856161872      1.01867728772273
  H           1.72612437919047      4.27865697295311      3.20769625304521
  H           2.09827559650408      4.61618815378100      1.51723873722188
  H           0.64477050405830      3.70367120802992      1.92626955168496
  H           4.52167196453757      1.90952603298680      2.37463248707189
  H           4.36275345966668      3.63333503137315      2.01263876081669
  H           3.94104026579274      3.02211222475974      3.61258389570954
  H           1.97438709665477      2.32781221770905      4.68151545650603
  H           1.03995911334408      0.83385855132887      4.58511827806475
  H           0.34728028003667      2.33486514885964      3.95998661165323
  C           1.23542799901432     -3.16841457635416     -0.46492362544459
  O           2.23608085271952     -2.74638967082724      0.28871997668608
  C           1.48275943643424     -3.42891563840847     -1.84331468235051
  C           0.44534873129380     -3.56934892268322     -2.78396430092697
  C           0.72949852477233     -3.79746328572215     -4.11485392930260
  C           2.03826024802529     -3.89088434981343     -4.55298885580485
  C           3.07680717389885     -3.74879973049440     -3.63914852533268
  C           2.80858753912879     -3.51751941955751     -2.31161368530862
  C          -0.08863894517229     -3.32618152963310      0.17978116544586
  H          -0.58680411522831     -3.47612295696348     -2.47119357588423
  H          -0.07894978250160     -3.89700257895799     -4.82248087607051
  H           2.25239056086276     -4.07102745018005     -5.59649411851035
  H           4.10119475718149     -3.82276192379153     -3.97655456204581
  H           3.61235736073974     -3.41160427868344     -1.59562614639123
  H           0.03010224670204     -3.77291674858613      1.16781757381741
  H          -0.76172998251719     -3.94300226959699     -0.40475325633499
  H          -0.55174387912999     -2.33941769261158      0.34271182365415
