22
Coordinates from ORCA-job NEB E -51.333579573590
  C           0.01858600277068     -1.25262055396862     -0.05656441212662
  C          -1.22624014559794     -0.62542431461254     -0.34313203982813
  N           0.14956017181157     -1.99739574813691      1.09557925709775
  H           0.62060794998789     -1.58638755005648     -0.89130884371621
  C          -1.62144654762159     -0.30485616382451     -1.78520583573246
  C           1.01506523304711      0.46391940632098      0.57606596785365
  C           0.08993747350264      1.51586549431903      0.64371400689502
  C          -1.02291480702418      1.37982841371627      1.44377174531541
  O          -1.90165804200262     -0.09911292505108      0.57013003506314
  C           2.24330564884011      0.62037631924194     -0.24910819141369
  H           1.22272307369512     -0.03861348552050      1.51692770231027
  H           0.06957042721874      2.24046076276696     -0.15992356272771
  H          -1.80213215957581      2.12184739341421      1.40631267409500
  H          -0.96163449941762      0.80933476888207      2.35648635760233
  H          -0.66139077807555     -2.02045083907341      1.69287240775726
  H           0.69517533854117     -2.83899340340083      1.04572649606520
  Cl         -0.60196204262472     -1.06894146186295     -3.00866838819850
  Cl         -3.28514542197301     -0.92900981038541     -1.98966807250737
  Cl         -1.66091222632853      1.45033064204679     -2.08340897937981
  Br          3.41357755172803      1.99740275961905      0.59649001830340
  Br          3.29937080846746     -1.02114170271047     -0.29980847092826
  Br          1.90795699063102      1.18358199827638     -2.07727987179967
