22
Coordinates from ORCA-job NEB_product E -51.375696460010
  C           2.96925387523427      1.51724262412291     -0.25300987376075
  C           1.79137136207900      2.04590736439891     -1.06769651110279
  N           2.46609615234302      0.58024539760112      0.73093772732292
  H           3.66984793195366      0.97738444702323     -0.89769518827894
  C           1.67453576691340      1.50455200720804     -2.50820902577518
  C           3.72530432806678      2.63237087190860      0.51182109929415
  C           2.79954882901346      3.48398114793771      1.33597640629818
  C           2.67873148597323      3.35053638244746      2.64370843487720
  O           0.88140040279496      2.66618401799340     -0.59382712798129
  C           4.56711948530162      3.50430558995952     -0.40284179264524
  H           4.40994906607153      2.10358926188424      1.18871682288530
  H           2.21394921513437      4.21664115533533      0.79863589475992
  H           2.00286377621335      3.96761705656960      3.20867390022865
  H           3.24707751757782      2.62180312950025      3.19841397605610
  H           1.77306751584361      1.02231246715908      1.32640796190674
  H           2.05093166631611     -0.23094704675918      0.28836490596500
  Cl          1.08111180631328     -0.17042430409463     -2.28002836471280
  Cl          0.48758758612757      2.43608626040079     -3.42638683696635
  Cl          3.20285780655756      1.44734823678125     -3.39448897909177
  Br          5.48495094319332      4.85836825235916      0.66003262524424
  Br          5.93978962815801      2.46841294354762     -1.32550290881821
  Br          3.49715385282007      4.42908273671556     -1.74790314570509
