20
Coordinates from ORCA-job NEB_product E -49.812734599900
  C           2.06983049300238      1.37980975330501     -2.07496283019810
  C           0.73440327018226      0.87561280587207     -2.56320084880387
  Br          2.01305708610868      0.92390098718640     -0.16550038947352
  H           2.91116349557138      0.82576953909500     -2.49680655925318
  C           0.80661472211287     -0.55692930163390     -3.16285318820256
  C           2.22310361156898      2.89102303947987     -2.26928967308403
  C           3.37005292313431      3.44473361897831     -1.47006189341489
  C           3.23048911607229      4.37678625155453     -0.54783614493940
  O          -0.29820741160964      1.46797216014655     -2.48604195583676
  C           2.46631119623571      3.15599543550067     -3.76119534039777
  H           1.28437457590532      3.38077320476583     -1.98782459123288
  H           4.33684125342901      3.01803551785075     -1.69846696644869
  H           2.27075752008657      4.80315674299091     -0.30710287174349
  H           4.07261993549273      4.74311293901492      0.01157695525593
  F          -0.38615375536496     -1.01804330715886     -3.51117767746725
  F           1.58988828380416     -0.56097190539861     -4.25081836776096
  F           1.34853512773597     -1.42516525450119     -2.29661083021098
  F           3.60396856570817      2.55087820050413     -4.17351070964027
  F           1.47113545782908      2.63673002010375     -4.51761766889450
  H           2.54761453299474      4.22841955234387     -3.99049844825284
