20
Coordinates from ORCA-job NEB_reactant E -49.812181451220
  C           2.58944925715450      0.36898150513390     -1.32209833714821
  C           1.39018830589015      0.91130647334089     -1.52971759235405
  Br          4.14013521166585      1.18642049880535     -0.64233583782377
  H           2.74787412620068     -0.67316968276220     -1.54438115262823
  C           0.29065663039296      0.02286070755111     -2.09914333741760
  C           2.54489479888901      3.17390577946365     -3.41928613601314
  C           2.64822964093454      3.60461079224863     -2.17282145549682
  C           1.68394433976803      3.26016357555282     -1.07921369367500
  O           0.86198029302161      2.14106463589250     -1.37044754552339
  C           3.53117084357347      3.51001765369976     -4.49549867011335
  H           1.74970339169113      2.52120197796929     -3.75052722195101
  H           3.45880951540907      4.25542277265480     -1.87819219308668
  H           0.96896910570636      4.08008903607069     -0.94957277408511
  H           2.21385888909822      3.12089494069644     -0.13160470280229
  F          -0.82099464080726      0.07722313792262     -1.36382749368668
  F          -0.03986188015403      0.41558808114808     -3.33824835894720
  F           0.63905981835365     -1.26425107602435     -2.18514411004456
  F           4.50543206512337      4.34044063321096     -4.06120362258538
  F           4.15577871592756      2.38171220574370     -4.92898391827760
  H           3.05652157216115      3.97651635168135     -5.37545184633995
