18
Coordinates from ORCA-job NEB_product E -43.720926430990
  C           2.95452224744521     -1.74133181639732     -1.03753680418892
  C           1.46497588628244     -1.83779277950939     -0.92892157383512
  Cl          3.30013519266401     -0.24117751355314     -0.07626703869228
  H           3.45423656725725     -2.56727466011903     -0.51690309255665
  N           1.01686779203318     -2.24383028789244      0.49871374431486
  C           3.44567488093296     -1.62080036078464     -2.47867530921756
  C           3.01605923904515     -0.37257168793615     -3.18456896318309
  C           2.30175757258415     -0.38145612070397     -4.29362816191419
  O           0.62720438522000     -1.60484588100785     -1.72979756546640
  N           4.95672026194266     -1.71690319704784     -2.46248640413950
  H           3.09868900787999     -2.50673958404948     -3.02620350757916
  H           3.34214281872030      0.55247135764760     -2.73433118662343
  H           1.97154500546558     -1.29657190901003     -4.75657983404484
  H           2.00950848303176      0.53246061152131     -4.77822735555498
  O          -0.10755261495697     -1.94775641200213      0.78401690135763
  O           1.82372942710928     -2.83199359109585      1.17174344665700
  O           5.56300110625355     -0.94415942050034     -3.14804772254710
  O           5.42278274108947     -2.58642674755930     -1.77419957278625
