18
Coordinates from ORCA-job NEB_reactant E -43.728524343710
  C           2.25037437570442     -0.62601332352559     -0.15277993040337
  C           1.46649874079426     -1.41954100732915     -0.89122882372655
  Cl          3.32866979354131      0.58661180319469     -0.69593637921351
  H           2.22317553310438     -0.75365576121141      0.92080354589332
  N           0.64036843740781     -2.40234053208332     -0.16428007467668
  C           3.97222956274997     -1.99521262797895     -2.89025734287862
  C           3.30374416931735     -0.94090567162694     -3.34031384933750
  C           1.84874044341180     -0.68850716429753     -3.13581770214238
  O           1.22875888956316     -1.54996088065479     -2.20353494747601
  N           5.37826733066312     -2.13714049018002     -3.14688719494020
  H           3.55399725992179     -2.80866200207822     -2.31771871183008
  H           3.83386922671313     -0.19563314988196     -3.92042440190639
  H           1.32189882569546     -0.88326234150922     -4.07788288512490
  H           1.68294405565564      0.36095842825658     -2.86661901239593
  O          -0.03960099340119     -3.13086945875241     -0.83545205852864
  O           0.71167681980153     -2.40262736503872      1.04168724785420
  O           5.93331400996912     -1.27243143404527     -3.78774525175150
  O           5.91127351938694     -3.12370702125778     -2.69191222741527
