19
Coordinates from ORCA-job P E -31.517039033320
  C          -1.33394660142861      0.41803522265199     -2.74186547982444
  C          -0.37113002126080     -1.47269730653499     -0.65717249383703
  C          -1.15280444673609     -1.89632903768513     -1.86286370806867
  C          -1.56638270332566     -1.06039270962526     -2.80570728878013
  C          -0.18791614280869      0.75843841998603     -1.77285148248408
  C          -0.42521911461963      0.03400622521072     -0.46130463228179
  H          -1.33233889651620     -2.95859266404274     -1.95202402242231
  H          -2.10383832727227     -1.42714267397873     -3.67009333829014
  C          -2.58362757468572      1.19165763659082     -2.28758103378371
  H          -0.74673633545973     -1.98876373832502      0.23040942313652
  H          -1.07876094052655      0.80743154616867     -3.73280625174133
  H           0.66518858955273     -1.79944925588466     -0.79860557671296
  H          -0.15636895919941      1.83963756920988     -1.62693719117547
  H          -1.38278501505564      0.33425374909810     -0.03305543172108
  H           0.76194641223902      0.43876429486916     -2.20711813804033
  I           1.04811886233140      0.64265643334879      1.02283607831131
  O          -2.65233656997547      2.38360859937774     -2.34008866029993
  O          -3.58350825654642      0.45220022689768     -1.79223741744537
  H          -3.37784395870625     -0.49776253733305     -1.82682335453906
