19
Coordinates from ORCA-job R E -31.419367062420
  C          -1.22318887770813     -0.29578669260751     -2.82354096360193
  C           0.16097867695590     -2.94336161723996     -2.39927328411794
  C          -1.11493039387294     -2.67969747695135     -2.12684038127271
  C          -1.77679106734294     -1.40585409788822     -2.31658808601768
  C          -0.77467921454058      2.39597883072866      0.01849735853552
  C          -0.57855857043887      1.27382219385814      0.67119805320627
  H          -1.74074939387700     -3.46486036879190     -1.72311312913071
  H          -2.80888201515701     -1.38834683727806     -1.97781200316393
  C          -1.89408366776248      1.01360548759082     -2.93640244289450
  H           0.57456572931217     -3.92091987493500     -2.22445320419543
  H          -0.18369712696436     -0.27313867009632     -3.11179931487898
  H           0.83540667311467     -2.20073138786083     -2.78738333763772
  H          -1.58327660089998      3.05282626779035      0.29517287921863
  H          -1.16742681090425      0.94526892929908      1.51076740387827
  H          -0.17976748408874      2.69933968243354     -0.82531441925610
  I           0.97356429194517     -0.07675712960413      0.20316915195243
  O          -1.27937901293879      2.04517043069943     -3.00639589697323
  O          -3.24300369474545      1.02361701937532     -2.93911869641089
  H          -3.61505144008639      0.13230531147795     -2.93533968723940
