21
Coordinates from ORCA-job NEB_product E -40.091224395950
  C           2.95121818635619     -0.31297557279804     -1.82140708977497
  C           1.76072173033584     -1.32707102292060     -1.80683620374734
  N           2.80607037076491      0.59386899748923     -0.66826790508036
  H           3.84795268368463     -0.91286629848651     -1.61981486267894
  N           1.53189738083599     -1.85558373702178     -0.59815943402410
  C           3.08424311584946      0.37952370032403     -3.18919776763235
  C           2.12772330044111      1.52841698037390     -3.40055996448079
  C           0.90798939094367      1.37168517904263     -3.87737482869694
  O           1.17432204904697     -1.62560725101964     -2.81457103883420
  C           4.53240917159816      0.82942508542911     -3.39412550780223
  H           2.86070572212972     -0.39315043146824     -3.93357457840088
  H           2.50744129321645      2.50693991078932     -3.14669114407598
  H           0.51671180955129      0.39809930020936     -4.12163542842875
  H           0.25098511748162      2.21094665341058     -4.02302968071863
  O           3.14767742578929      0.11700587677518      0.39892508500349
  O           2.31687947071815      1.67881281657953     -0.80726321971778
  H           0.78540698961814     -2.52277876223416     -0.49418713427276
  H           2.04767319448463     -1.56499544025734      0.22099774433155
  F           4.95307634999738      1.60013693795302     -2.33798348080663
  H           4.62825609275169      1.44078217377345     -4.29572074282980
  H           5.21773915440466     -0.02401509594303     -3.44652281733160
