20
Coordinates from ORCA-job NEB E -44.895794978500
  C           0.59386019532233     -0.84823051827670      0.52980777521251
  C          -0.50054793689727     -1.51673203380564     -0.03700268784672
  C           0.46279396625228     -0.23308391872385      1.90302313164192
  H           1.56283409032899     -1.31615663256283      0.39217774846399
  O          -0.21038319616868     -2.51003904273643     -0.91220185787938
  C           0.57570230006506      0.69716745459385     -0.74790747067727
  C          -0.71694679472845      1.19813098535743     -0.63768754953912
  C          -1.79091860986040      0.35291289163499     -1.00608622658002
  O          -1.67835889349743     -1.01527950920496     -0.03522175582657
  N           1.68972043902666      1.54804728792527     -0.33520347115884
  H           0.87159350175940      0.07811064745131     -1.58943907476076
  H          -0.88632403420427      2.00800905780412      0.05592239735375
  H          -1.72184359908424     -0.13747733466827     -1.97295827453852
  H          -2.78832855949111      0.69733633157470     -0.76998781671173
  F           1.52413830585016      0.55986485798672      2.17354718581245
  F          -0.63715175102657      0.53001766862657      2.05782631151459
  H           0.43548820280027     -1.01316295437920      2.68487623121017
  H          -1.01975943473294     -2.80836782155948     -1.35145539366986
  O           2.79412318775408      1.12018918926784     -0.57754343403592
  O           1.44030862053212      2.60874339369460      0.17551423201533
