20
Coordinates from ORCA-job NEB_reactant E -44.924376303560
  C           2.01195235809621      0.25076797429926     -0.17781020804812
  C           1.58283414890602      0.01946454938551     -1.43222663071049
  C           1.75758598957313      1.42201627153624      0.70038124727353
  H           2.59452272518131     -0.52669216856490      0.28952626930868
  O           1.82938830614388     -1.15590302873963     -2.04443061473635
  C           2.66126811521137      3.96725341873569     -2.36063622038239
  C           2.27690242357088      2.71021299960426     -2.54340400067405
  C           0.91125110378125      2.18162927453509     -2.26073377835050
  O           0.85975191377319      0.76818964723329     -2.27639676595369
  N           3.99794267848642      4.37856188827645     -2.67179576380717
  H           2.04417560556473      4.75878903268052     -1.96616129695941
  H           2.99532348448568      1.99969581121926     -2.93707827864753
  H           0.23667880847776      2.47044500539134     -3.07570958724468
  H           0.50472647919836      2.60214707791540     -1.33634679182248
  F           2.41218018310019      2.55846694138688      0.30512029256266
  F           0.44107351778256      1.78057094444391      0.74076632859407
  H           2.06961444802458      1.22208044890379      1.73478818139412
  H           2.24124574868057     -1.79032004259856     -1.44612961720928
  O           4.77087803855152      3.54978547160134     -3.10085463213202
  O           4.26330392341039      5.54503848275486     -2.48206813245491
