21
Coordinates from ORCA-job NEB E -40.034400263900
  C           0.44191011302880      0.17483313570902      1.14025114756364
  C          -0.91537265843398     -0.21277984511663      0.96155232602134
  N           0.73957802456859      1.48659324099999      1.29142787916394
  H           1.13351477995516     -0.52621022674453      1.59190586233842
  C          -1.31459391441046     -1.65573098693539      1.20098977968000
  C           0.78781766186684     -0.23884164726240     -0.92463465168735
  C          -0.06431568149722      0.70406447067560     -1.50914873824601
  C          -1.43057044250899      0.50532864760040     -1.49682051465654
  O          -1.71744508759914      0.55990928324760      0.36724636207411
  N           2.17793742204298      0.04114061549109     -0.86067186635147
  H           0.57971581480681     -1.29957925190933     -0.95516913401623
  H           0.33731770562405      1.69619350713400     -1.66613822237111
  H          -1.82964179197368     -0.49355348379992     -1.58402169450088
  H          -2.08760337086093      1.29104674744650     -1.82992623466808
  H           0.04313331571093      2.11569303071427      0.91107026312820
  H           1.69582550886808      1.77970903412472      1.13524124765291
  F          -0.22795507193356     -2.45978961067235      1.41870119753959
  H          -1.85473458535831     -2.05502592935917      0.33406889246094
  H          -1.95633708483212     -1.72948639915821      2.08664897183493
  O           2.94871742075886     -0.89632790110170     -0.85370567036647
  O           2.51310192217731      1.21281356891642     -0.75886720259389
