21
Coordinates from ORCA-job NEB_reactant E -40.053838592130
  C           1.24525400612880      0.11852836306125      0.00486563887356
  C           1.47329860360880     -0.89582815677231     -0.83701367867728
  N           0.90702859659947      1.39959604854092     -0.38531616528547
  H           1.39019930212710     -0.03615022792633      1.06263897653894
  C           1.85576998463238     -2.27773172845038     -0.37522517413597
  C           4.18489088349288     -1.12108358891624     -4.15288641130875
  C           3.57738293349643     -0.80946579777612     -3.01384024475151
  C           2.30514781010281     -0.03830046064899     -2.90381667906229
  O           1.30220852061008     -0.77018126595969     -2.21434746336744
  N           5.39733633394085     -1.88442965644966     -4.16056878154136
  H           3.84683492658412     -0.83798005289756     -5.13767507150922
  H           4.01263171946506     -1.15567782362693     -2.08418824293144
  H           1.88634747751942      0.16758925104954     -3.89178775934278
  H           2.50990040355464      0.91033757314813     -2.38651362000548
  H           0.45027788561243      1.44988620346642     -1.28539833467963
  H           0.44908252046411      1.95378956870057      0.32069877250625
  F           1.40407468518064     -2.51235166922178      0.89908280777967
  H           2.94314810753689     -2.43356040213621     -0.34815536202814
  H           1.39651307231273     -3.02503565698177     -1.03137620748563
  O           5.84758155258979     -2.26046676861227     -3.09911743255667
  O           5.89419067444055     -2.10298375159060     -5.24455956702936
