26
Coordinates from ORCA-job NEB_reactant E -54.831646026350
  C           2.04332000717729     -0.27923169407688      0.02926980073851
  C           1.59684598924619     -1.50545032710863     -0.23246091987296
  C           1.83053174867175      0.91038950028156     -0.84351599221069
  H           2.60791061893444     -0.10450330834559      0.93438884689028
  C           1.85964783228815     -2.65967178804634      0.69906793047482
  C           3.09175205111980     -3.97891080802024     -2.90820424572665
  C           1.87083636893962     -3.49179794665941     -2.76183574126616
  C           1.57264693225358     -2.03790413976616     -2.55304693809167
  O           0.85380324359743     -1.82409386095237     -1.33796642739657
  C           3.36521260569202     -5.43722435648591     -3.11209562170039
  H           3.98441552088361     -3.37064265285611     -2.89695958960990
  H           1.00849745880853     -4.14488290980487     -2.76249223186369
  H           0.90241693369200     -1.69458865455776     -3.34817226015181
  H           2.49202699111903     -1.44347650445852     -2.56623858948575
  C           3.16480978056732      1.49575051266567     -1.30764587998056
  H           1.29947145267175      1.66607162947696     -0.25866286775975
  H           1.20912284652799      0.64632776552484     -1.69986874022416
  H           3.77356423142676      1.78069647958071     -0.45304648243683
  H           2.99173449941787      2.37757092237784     -1.91836369941424
  H           3.72247288869109      0.77177732290072     -1.89824203842589
  Br          1.66187290404211     -2.17052362771505      2.57192166024032
  Br          0.66263754241252     -4.13426206373133      0.33609349081079
  Br          3.72797145219397     -3.29716803663053      0.45511691651680
  F           2.25603069256660     -6.17347783071935     -3.24592459401297
  F           4.10284972054331     -5.64780960496542     -4.21724041828954
  F           4.05939768651526     -5.96486401790782     -2.09097536775132
