22
Coordinates from ORCA-job NEB_product E -45.439518059870
  C           3.00238763036463      0.77294603925530      1.29907645524735
  C           1.49429684946365      0.73710812339864      1.13536049088181
  N           3.67938735174393     -0.11942693529262      0.38932664443544
  H           3.35101946527874      1.79628506711260      1.11293056082833
  C           0.70693673010673      1.87193842043710      1.86000435577692
  C           3.33994082786303      0.41195309691637      2.77539944941779
  C           2.90884371431561     -0.98914878116890      3.10624645382663
  C           1.91784429409541     -1.28139097563847      3.92628411920206
  O           0.89618333202120     -0.08911450755614      0.50911866522896
  C           4.85145355077443      0.56561094009346      2.96788260321835
  H           2.83469775036800      1.11589916649587      3.44333885634692
  H           3.48769894576016     -1.77170675241969      2.63604140567014
  H           1.33713390576140     -0.51903419435862      4.41852209607121
  H           1.64748125507247     -2.30013546803485      4.14253432437314
  H           3.25893743125232     -1.04243727033744      0.43057215666844
  H           3.59577644365796      0.20864038998954     -0.56601600538362
  F          -0.35399408369341      2.25688073067915      1.15228215174773
  F           0.26971941925000      1.46946628247298      3.05999911023301
  F           1.46042086557366      2.96336553359458      2.06897803142453
  F           5.17902761067244      0.33517862490282      4.27762784694655
  H           5.18029368926055      1.58282192193333      2.73284103496369
  H           5.39811302103709     -0.15929945247502      2.35894919287463
