17
Coordinates from ORCA-job NEB E -30.364301283550
  C           0.89337051510072     -0.00104737117301     -1.01960983390149
  C          -0.46374408139423     -0.38094099579247     -0.92994417624550
  F           1.82366435536513     -0.98468507451211     -1.03768865274534
  H           1.19273591760474      0.78921429997510     -1.70491228137007
  C          -1.52482166438371      0.60480283422178     -1.33077321738681
  C           1.15496966624219      0.67858170243984      0.70881553624793
  C           0.86244820825785     -0.42859438592082      1.51784841724061
  C          -0.45945742017740     -0.93788336977399      1.45593546232944
  O          -0.76329371102443     -1.33602439348531     -0.10375152612490
  F           2.42921497280407      1.12258380718414      0.69088169472561
  H           0.47981050637668      1.53447754008806      0.68509773369737
  H           1.67842522837745     -1.09544494552003      1.75031038942517
  H          -1.26176165832101     -0.22003381872157      1.61167011853940
  H          -0.63514672778672     -1.87585382270458      1.96631351410918
  H          -1.88579976231155      1.14149012380842     -0.44940217881264
  H          -2.37221476669901      0.07090158554950     -1.75468407348826
  H          -1.14839957803077      1.31845628433703     -2.05610692623970
