17
Coordinates from ORCA-job NEB_reactant E -30.400782192640
  C           2.56030341841230      1.04166379596587      0.42248452122042
  C           1.45713417258698      1.47764226868596      1.02199589971298
  F           3.52650187951134      0.28402415585143      1.00064864281675
  H           2.79402102950888      1.26033317903651     -0.60551589963848
  C           0.46447834709398      2.30851994968191      0.26208765282447
  C           3.30877025095844      2.52864642145331      3.42571711688015
  C           3.05892117855420      1.25843702405015      3.67282542225516
  C           1.83401131403258      0.53767194423528      3.19773230545183
  O           1.03248427666031      1.27524830140803      2.29931043159658
  F           4.41878589437166      3.13085002133078      3.88200937540788
  H           2.68539290962490      3.20739899748438      2.86263506136767
  H           3.75627118702923      0.66873956196010      4.24735368717567
  H           1.17666765457393      0.34119174958422      4.05314783757604
  H           2.12184298205950     -0.42836867358079      2.76547112735351
  H           0.33049237988307      3.26543665974943      0.76225908961929
  H          -0.49919326095191      1.80355125104666      0.25266557855627
  H           0.79471438609060      2.47621339205676     -0.75682785017621
