17
Coordinates from ORCA-job NEB_product E -30.407143969520
  C           1.84707295858332      1.26416552125614      1.29607306452563
  C           0.60533798642875      2.07572488413359      0.88943640669573
  F           1.51497419313905     -0.06082799806888      1.42433411552917
  H           2.64287697423502      1.32755135137234      0.54436427211132
  C           0.90509132809325      3.23965148732454     -0.00689428760970
  C           2.36535545475886      1.75842501080241      2.66823769841906
  C           3.54637459851153      0.95369606863681      3.11386088554881
  C           3.46262482666502     -0.04222290415632      3.97423981252749
  O          -0.48463809067231      1.78820463040613      1.29818605471874
  F           2.72577310581962      3.08326945389645      2.52176885944961
  H           1.54567186969652      1.72309369842128      3.39576797236874
  H           4.48170441996317      1.23672079908039      2.65195796318107
  H           2.52595832621094     -0.32453955482026      4.42455326235447
  H           4.32560323309071     -0.62235063862655      4.24955356814347
  H           1.67694897402310      3.85972977551248      0.44471008867470
  H           0.00457489622140      3.82559926491767     -0.16784707102066
  H           1.27809494523206      2.87650914991177     -0.96280266561766
