17
Coordinates from ORCA-job NEB E -33.024224054960
  C          -0.14063927796136      0.39931418654300      1.43278896822190
  C          -1.45316691040406      0.63585968908700      1.04941922929866
  I           1.12276998751458      2.10304617636287      1.54669237251663
  H           0.04513779188491     -0.28054521439923      2.25391901383870
  Br         -2.69438428292236     -0.82599655245207      1.56153207879799
  C           0.41570985676084     -0.62686096065703     -0.19999588044318
  C           0.05287981615854      0.25835120526346     -1.21162099099888
  C          -1.31191793481891      0.57051253194987     -1.40033108369491
  O          -1.78224194190047      1.31304802963799      0.04678718621505
  C           1.86340377652561     -1.00187114315245     -0.00620239983745
  H          -0.24307840882315     -1.46524791510754      0.00981878540310
  H           0.79755847613820      0.95696033566148     -1.56638582978110
  H          -2.02261190424923     -0.25122124275851     -1.38612548488993
  H          -1.55456371590661      1.34004518371870     -2.12028991550864
  F           2.71150792279333     -0.05482164140588     -0.50714369280483
  H           2.07048663030426     -1.93129710745234     -0.55193631703950
  H           2.12315011890588     -1.13927556083931      1.04907396070639
