17
Coordinates from ORCA-job NEB_product E -33.072120748750
  C           2.84038530128851     -1.72789399541083     -0.62740923262503
  C           1.41300795840364     -1.29948785585187     -0.65434895168357
  I           3.98717941300273     -0.15093674377276      0.31226626651325
  H           2.95338550844997     -2.60789024267993      0.00969841003877
  Br          0.23734994486407     -2.83499534565801     -1.02921525306439
  C           3.31290311218180     -2.05047742126813     -2.05359661694102
  C           3.05015934721588     -0.90312157801067     -2.98868926890830
  C           2.20969966176085     -0.96244050780714     -4.00303241053085
  O           0.93438589662580     -0.23577868367241     -0.50709522932131
  C           4.79437572200791     -2.44439054437797     -2.06529417416142
  H           2.74677045675392     -2.92690294483190     -2.39485617923686
  H           3.60417716583183      0.00264784313379     -2.77851187030455
  H           1.65409283040606     -1.85703403857674     -4.23382043256229
  H           2.04827605982512     -0.11912575801678     -4.65101877321185
  F           5.08154204763840     -3.08321986587172     -3.23877494047311
  H           5.02971574151499     -3.14534479978305     -1.25613713593464
  H           5.45029383222853     -1.56960751754386     -2.00936420759282
