17
Coordinates from ORCA-job NEB_reactant E -33.051259125970
  C           2.10113359869223     -0.53679275823209     -0.14196206613049
  C           1.30885024201841     -1.30724760927350     -0.87320535467092
  I           3.45697148566613      0.94526883136478     -0.77175327978791
  H           2.07760175785417     -0.62645758239878      0.92890705038573
  Br          0.19218764225111     -2.53350122853045      0.09960285974911
  C           3.67461056894602     -2.56921674949819     -2.53867081585174
  C           3.27122374241693     -1.49103752918953     -3.18954396644302
  C           1.87181312678072     -0.95615002436859     -3.18528404611541
  O           1.04452347634209     -1.49339903291796     -2.16386052218980
  C           5.07514823980115     -3.08786195394530     -2.56039483428574
  H           3.00315918338370     -3.16283805519798     -1.93311074453253
  H           3.96505136538605     -0.92565494584688     -3.79444452948465
  H           1.36176244958770     -1.24872230841805     -4.11019302915247
  H           1.87983746415586      0.13833527968019     -3.13818502944195
  F           5.88020638265274     -2.36335253058811     -3.39854470398999
  H           5.09794286542347     -4.12668754535182     -2.91249742694284
  H           5.52627640864151     -3.03628425728775     -1.56095956111541
