17
Coordinates from ORCA-job NEB E -25.506246787490
  C           1.03678885858158      0.59084453460143      0.14858192682256
  C           0.07896156591380      0.90135973742803      1.09635600263062
  C           0.93077283111879      1.19872373000492     -1.22457205334509
  H           2.05544909794693      0.47336362561565      0.50268380508637
  Br          0.56852117151891      0.50785169190002      2.96676755646649
  C           0.40455849311627     -1.30627615977392     -0.15379115801678
  C          -0.93105289435756     -1.12120753250428     -0.43549489574385
  C          -1.76068209477303     -0.56706936967236      0.59454070761609
  O          -1.17737161706139      0.89921587268314      0.85562946481011
  H           1.06716728828275     -1.63030029697678     -0.94215171755974
  H           0.68822109080099     -1.65585741782145      0.82956589153073
  H          -1.24414454062151     -0.98862686063804     -1.46091867750747
  H          -1.66262911662213     -1.02347685821456      1.57897160750958
  H          -2.79377472560171     -0.36624984107569      0.33606329611510
  H          -0.10846921662933      1.31196196110753     -1.52087647062972
  H           1.45226949657390      0.59097503046879     -1.95918445361679
  H           1.39541431181273      2.18476815286755     -1.21217083216821
