17
Coordinates from ORCA-job NEB_reactant E -25.526453224940
  C           1.83523635810736     -0.01268782944604      0.08112902025670
  C           1.45801893385754     -1.16245634811071      0.62067116664810
  C           1.85790653533782      0.23860002011852     -1.38998435110659
  H           2.16155442459023      0.78924081030846      0.72458385124500
  Br          1.46884559136444     -1.32289303156245      2.55848664584903
  C          -0.54918582956559     -5.32950123380842     -0.23045675659288
  C          -0.23307029590396     -4.11176309699551     -0.62541284339847
  C          -0.05451898840943     -2.95336321931866      0.30385557401406
  O           1.14630426769118     -2.27305881375970     -0.05386131315546
  H          -0.68690044432145     -6.13390991916266     -0.93159051299587
  H          -0.69435782270646     -5.56887975604314      0.81012877480297
  H          -0.07980118969419     -3.87770323390162     -1.66929404967033
  H           0.00097708573010     -3.29618067518944      1.34477847817707
  H          -0.90612736577515     -2.26149330235194      0.20767699427622
  H           1.45998019378526     -0.61471677360867     -1.93194227143186
  H           2.88025609536991      0.41868302914603     -1.72063395895994
  H           1.27018245054238      1.12518337368595     -1.62523444795772
