17
Coordinates from ORCA-job NEB_product E -25.554876584950
  C           1.58748939570505     -1.57154995221455     -0.23249753898054
  C           0.79332495472625     -0.72589783837023      0.70762453274823
  C           1.43038747692864     -1.04307073815765     -1.65652083554392
  H           2.64012455931125     -1.52138650489754      0.06814730034767
  Br          1.25453211967300     -1.09955268940580      2.59676947737669
  C           1.12569739022667     -3.04071201497142     -0.08518735586493
  C          -0.35677097735966     -3.18788356209923     -0.24907018495893
  C          -1.17219140593840     -3.51803521072645      0.73415586039929
  O          -0.03244457329959      0.08541474474481      0.49066954278823
  H           1.64406821389749     -3.62877979945130     -0.84591532986688
  H           1.42258154436544     -3.41293903395152      0.89698663668113
  H          -0.74495053701050     -2.99889337892600     -1.24059097334306
  H          -0.81092729414907     -3.71386963714535      1.73091138690758
  H          -2.23444130995856     -3.60929942135375      0.58685868924347
  H           0.38292271997182     -1.01307443423949     -1.94326914049162
  H           1.96998680809651     -1.68209566549931     -2.35070167104804
  H           1.82941091481366     -0.03397486333521     -1.73097039639436
