33
Coordinates from ORCA-job R E -45.550489695170
  C          -1.77082748133292     -0.68305779234596     -2.89067670487603
  C          -0.19984316298117     -3.17922218165573     -2.24310210374330
  C          -0.99296803050122     -2.50837715731365     -1.41528120647155
  C          -1.57202802771298     -1.20294175370572     -1.68189017559378
  C          -1.02839166001798      2.46830496108725     -0.39969224760742
  C          -0.44453599035977      1.47650681609389      0.27371855911699
  H          -1.22617487118155     -2.92413243450516     -0.44342725390172
  H          -1.86570260639562     -0.62974555748016     -0.81207513525641
  C          -2.37425821567420      0.66770674894079     -3.09265026330082
  H           0.20411307791502     -4.14196239537746     -1.98162035466869
  H          -1.53750286286326     -1.21899456152386     -3.79822808940630
  H           0.08711703401674     -2.78493866749866     -3.20300080026247
  H          -2.00846806732653      2.80243789605189     -0.11031384180436
  H          -1.00202859926476      1.00025070394402      1.07248886751887
  H          -0.56241441953885      3.00574062879640     -1.20491001609724
  N           0.82459640536216      0.97707246288813      0.14824227156531
  F          -1.76252984027801      1.31723835878782     -4.11962961056991
  F          -3.68631920762405      0.57066177544780     -3.45415226053132
  H          -2.31581025201132      1.31476481496473     -2.20191040072153
  C           1.72098776311318      1.50416766927442     -0.86440329320727
  C           3.18094546792241      1.41820917995096     -0.41708858919348
  C           1.53650256465517      0.82676681617556     -2.22682940124608
  C           1.10023289974024     -0.33533982855530      0.67777319087030
  H           1.46916296419046      2.56459652971937     -0.96398957848965
  H           3.54914716236153      0.39620605424920     -0.45939588903860
  H           3.29086930879794      1.79641859089426      0.59638743112635
  H           3.79495686493234      2.02474874241989     -1.07778297994088
  H           1.77496970052119     -0.23268940428178     -2.16500560146871
  H           2.19390611458574      1.28595640212175     -2.95995573116645
  H           0.51024694397525      0.93055130679794     -2.56801892879488
  H           0.37039617650985     -0.57466540115554      1.44927630599561
  H           2.09066003563077     -0.36168364210719      1.13265411957323
  H           1.04765281083420     -1.11318568109990     -0.09416028840783
