33
Coordinates from ORCA-job TS E -45.538001401100
  C          -1.95759763454399      0.02956885503138     -1.00783311745518
  C          -0.90014926019372     -2.36047236075657      0.22405600987375
  C          -2.22429353085464     -2.13223393870214      0.07785206415132
  C          -2.76843599682872     -1.01748081843014     -0.58767689106691
  C          -1.25494296262284      0.87075047508824      0.66149960903766
  C          -0.29814236421556      0.06000099986450      1.25120098785614
  H          -2.92198094775757     -2.78829266995675      0.58265297672063
  H          -3.83408992026072     -0.85252413182954     -0.51959004337449
  C          -2.61985525307064      1.16833942054826     -1.72852587078947
  H          -0.54591132640007     -3.17949539823229      0.82727189398109
  H          -0.98946123207959     -0.20825956529872     -1.42870153963305
  H          -0.16408788954700     -1.86110362262588     -0.37499829442645
  H          -2.18995200206801      0.94314375099018      1.19321535318206
  H          -0.59340128364674     -0.61691277805626      2.03669975927567
  H          -0.94089044339076      1.79478132609014      0.20522345540639
  N           1.03296313256283      0.06108569309387      0.98739625456730
  F          -1.74965528196884      2.18856524580711     -1.96830819781950
  F          -3.05397321579506      0.78198689125903     -2.96176295964475
  H          -3.48599018670472      1.58834953890434     -1.19473291017003
  C           1.62172006572536      0.80746671569141     -0.11145410409571
  C           2.49251437781214      1.95059926663733      0.41961086725125
  C           2.41797305406240     -0.09334820118157     -1.05831150731928
  C           1.87510220814265     -0.85952693562249      1.70794480857285
  H           0.80168966366071      1.24611017298237     -0.68235910150328
  H           3.36813475889559      1.57207212714178      0.94137678751874
  H           1.91913819388006      2.56781206114890      1.10681995128478
  H           2.82965598224499      2.57118704450391     -0.40591500386604
  H           3.31426719608386     -0.48254777439697     -0.58223120248758
  H           2.71805955262507      0.47990781624652     -1.93154224173394
  H           1.80971825564493     -0.92992547063036     -1.39473995141423
  H           1.91397851426220     -1.83967174657060      1.21977298571972
  H           1.49202265504714     -0.99695030254157      2.71811967640114
  H           2.88587312129924     -0.46298168619743      1.77796949599941
