22
Coordinates from ORCA-job NEB E -28.525217828970
  C           0.09667349135955      0.35314483635862     -1.03705320691542
  C          -1.16318262266078      0.80143656668109     -0.63632459460129
  C           0.20816951382677     -0.98494530035030     -1.71748204838189
  H           0.76504148661611      1.11038696248641     -1.43647776168156
  N          -1.36410643503107      2.15882636965251     -0.37860614642809
  C           0.79033348598249      0.02220138110520      0.81721074091547
  C          -0.14459301630704     -0.87115476559470      1.32486659298226
  C          -1.49590115779654     -0.42376398330446      1.42842562550683
  O          -1.99587676772481     -0.02397712104384     -0.06589261625696
  C           2.22685338780577     -0.39531132233932      0.66073201735893
  H           0.68239785071909      1.06038841416106      1.12015619544108
  H           0.03224197801685     -1.93025865922792      1.20324821478310
  H          -1.63731435759057      0.52688121978362      1.93907614142143
  H          -2.23131863552937     -1.16319570412177      1.72275128069510
  H          -0.48447601786499     -1.69194749155286     -1.26995464830038
  H           1.21850599953933     -1.37862439436714     -1.65434597864899
  H          -0.04531668177375     -0.87822427337782     -2.77330901513617
  H          -2.31536678825659      2.39591248476784     -0.14171207144362
  H          -0.92660823060492      2.80349274064741     -1.01634139310161
  H           2.73572379541032      0.20378088196395     -0.09093895834112
  H           2.30451472782684     -1.44575936189608      0.39260564698567
  H           2.74360499403730     -0.24928948043150      1.60936598314724
