22
Coordinates from ORCA-job NEB_product E -28.583217023510
  C           2.92107693020068      0.20104753249058      1.26558027659400
  C           1.52770836277822      0.82445380325023      1.26546682652754
  C           2.92489017736870     -1.02629059750814      0.36022428952502
  H           3.63465729539389      0.93890725347079      0.88059136021681
  N           1.51530409608097      2.14321986618144      1.58362316744120
  C           3.30157738041822     -0.10000792355388      2.73844213619131
  C           2.38233073574248     -1.12480939473830      3.33345799773222
  C           1.45181636794890     -0.85534881239448      4.22828690767420
  O           0.51100260249910      0.21845472571784      1.02286029837172
  C           4.75767188119740     -0.55138538417950      2.86469028802182
  H           3.18575135129471      0.83483819962416      3.30092576431695
  H           2.52513956775974     -2.13769897882104      2.98451636242869
  H           1.28693833878407      0.14520575123206      4.59512290278137
  H           0.80666458013458     -1.61834247816549      4.62835635448979
  H           2.11278766809134     -1.69177435184060      0.63823577992887
  H           3.86996246193251     -1.55833192661867      0.41772971025481
  H           2.76527767099718     -0.71792732487469     -0.67076310274873
  H           0.62984945619673      2.61724184101818      1.64722459092888
  H           2.35141974685991      2.65496473385475      1.79903616822026
  H           5.42646715870188      0.17192180002169      2.40232788653792
  H           4.91044862016792     -1.51747318842171      2.39153720893286
  H           5.02295754945087     -0.64486514574521      3.91552682563246
