15
Coordinates from ORCA-job NEB E -26.857655740510
  C           1.21938391336549      0.70348287513282     -0.23732578667278
  C           0.87100000381603      0.49807536146637      1.11469625812919
  O           0.66687216527984      1.73196434881052     -0.91825373868153
  H           2.22906367102136      0.50160444509535     -0.57585510547791
  H           1.49384016062190     -0.17560442980323      1.71066944487208
  C           0.22028667647193     -0.87545649200704     -0.89338826518946
  C          -1.09128290392129     -0.55906548882520     -0.51580682529812
  C          -1.41877021055260     -0.55660648869389      0.83780156199924
  O          -0.32676085055105      0.73943526157691      1.47082667478577
  Cl          0.60831540002792     -0.87030636528365     -2.58912982558540
  H           0.75194976466143     -1.66325308616683     -0.37400004821544
  H          -1.67970208635496      0.03593597891415     -1.20027282054178
  H          -1.02523565517375     -1.33598784498012      1.47484961253569
  H          -2.38414418465238     -0.17942358460303      1.13710072501957
  H          -0.13481586405987      2.00520550936688     -0.44191186167912
