15
Coordinates from ORCA-job NEB_reactant E -26.882688291430
  C           1.89803831825731     -0.02607614368316      0.01606156538194
  C           1.37378688238409     -1.24695870512946      0.06534588351660
  O           1.68447402324414      0.84139792112573     -1.02087270189180
  H           2.52840012252861      0.30780772520818      0.82796039034125
  H           1.57157263424240     -1.88025445060190      0.92081903312926
  C          -0.71704925984382     -4.73511137154683     -2.18487232534224
  C          -0.76926781124194     -3.46403707635202     -1.82899706453525
  C          -0.12369449458984     -2.92967561197172     -0.58872681181000
  O           0.60630868700313     -1.77435739247858     -0.93436389045158
  Cl         -1.48578217480336     -5.33676066537068     -3.59715924625550
  H          -0.20895271458091     -5.49753702892995     -1.61380796433816
  H          -1.27553402648281     -2.72803385823126     -2.43462340674602
  H           0.53344663208574     -3.68612283084000     -0.13492067209620
  H          -0.90804190379085     -2.67134870864619      0.14325003003558
  H           2.21159508558813      1.63546819744784     -0.89739281893788
