15
Coordinates from ORCA-job NEB_product E -26.890939198960
  C           1.39014704373428     -1.42890680152073     -1.26308702374649
  C           1.28097583011574     -1.04488686873147      0.19716637039319
  O           0.72904006313239     -0.50393288886639     -2.06450943826967
  H           2.45388331686315     -1.45357372869928     -1.54441560085867
  H           1.84576841687107     -1.68385532147839      0.89503141303572
  C           0.82017764266580     -2.86344131647779     -1.41157240074204
  C          -0.65652577365837     -2.89777055271893     -1.21570364647036
  C          -1.25852513822617     -3.66735323856144     -0.32823419231265
  O           0.60990977448381     -0.12138235658522      0.56363655246850
  Cl          1.19531099908555     -3.45498524443271     -3.06661848885421
  H           1.33596283618579     -3.53742440780679     -0.72334314221900
  H          -1.21526441744408     -2.24457146553800     -1.87069393717286
  H          -0.70760471378785     -4.32995977139614      0.31919746999007
  H          -2.32825428511997     -3.66649563583508     -0.21501643180518
  H           0.21749840509887      0.07693959864836     -1.47633750343634
