19
Coordinates from ORCA-job NEB_product E -37.397459551520
  C           3.18113235693333      1.24966041084404      1.33913696517963
  C           1.74960308926355      1.11727344026842      0.91882882749809
  Br          4.25791811123548      0.03864344878618      0.25888611229287
  H           3.55802244982028      2.25610382366441      1.14147398479012
  C           0.82660667602690      2.26531273113527      1.40400350107619
  C           3.35761012540310      0.95656977736372      2.85211150226518
  C           2.92344232366036     -0.44933311030144      3.17592366419587
  C           1.87412509993300     -0.74079301968115      3.92021170285132
  O           1.28939638112927      0.21301503152826      0.28560069335867
  N           4.73344004319156      1.25368546331190      3.19843458771648
  H           2.72728398565918      1.67153175493901      3.39514323133356
  H           3.55349335879932     -1.22978398957451      2.76890988365942
  H           1.23658453954434      0.02509300705893      4.33121259351752
  H           1.60503659747212     -1.75885458018990      4.14243457828180
  F           0.38908514842113      1.99870582070400      2.65692306321171
  F           1.48384450499584      3.44385882096797      1.46885931604058
  H          -0.04905550143843      2.37853520982365      0.74813101652852
  H           5.36424727009689      0.58065785376184      2.77283716271289
  H           4.86428343985274      1.22251810558938      4.20163761348959
