22
Coordinates from ORCA-job NEB_product E -49.954928054610
  C           1.98499305443272     -1.87027572741195     -0.36279763861700
  C           2.45866098309777     -1.59187453362076      1.04624852360325
  C           3.23519449600737     -1.86284767948920     -1.23742672545579
  H           1.30601605832481     -1.09443135812784     -0.73039868309776
  C           2.00536070475509     -0.31279734969972      1.74095340732954
  C           1.25824974093640     -3.24720310362833     -0.39053225033175
  C          -0.08680772705064     -3.13345665478725      0.27330886234737
  C          -0.47939774604686     -3.91005375993454      1.26525856499535
  O           3.14692956899110     -2.36046863946192      1.65569130406815
  N           1.17385820075333     -3.69102607021592     -1.76890169341143
  H           1.87797838204661     -3.96082990214301      0.16438097528142
  H          -0.75623357671571     -2.39957188671045     -0.15893945609679
  H           0.17410905354446     -4.64807974945277      1.70050632658278
  H          -1.46386498085207     -3.82913717619972      1.69142290514909
  Br          2.79732651771408     -1.62700663796045     -3.10841684261539
  Br          4.37056458527684     -0.33578445724452     -0.71910384910809
  Br          4.30890568039624     -3.45491601332364     -1.04327974108327
  Br          3.38699304193154      0.25857138589239      2.97102889755971
  Br          1.49530525932244      1.16369557455694      0.60783770781013
  Br          0.42426386714428     -0.86583329933992      2.76226232878344
  H           0.38947341419153     -3.26137952611213     -2.24870978908043
  H           1.07212142179865     -4.69559343558533     -1.82739313461253
