22
Coordinates from ORCA-job NEB_reactant E -49.954447602720
  C           2.27997995962342      0.02780397083129     -0.13412286883017
  C           2.16762974832827     -1.06352112197050      0.63237835148195
  C           2.15897256015638      0.07278865962791     -1.60188740630316
  H           2.44951600257142      0.99027290460447      0.33131040253573
  C           2.28755040856390     -0.93894116967216      2.13531706397989
  C           0.62680368623506     -5.23113755301410      0.29556852085909
  C           0.63632849464748     -4.15051805606738     -0.49246110273894
  C           0.59007337360581     -2.77799231530315      0.05681280197824
  O           1.97690285055924     -2.31076366308227      0.18844743461110
  N           0.62739564259993     -6.52047589809987     -0.14732697507493
  H           0.52988878884959     -5.12374320785808      1.36807280865990
  H           0.76250058887541     -4.24337013632143     -1.55941245607784
  H           0.12477374990200     -2.76134546044240      1.04762068775456
  H           0.05978455776103     -2.08800709152015     -0.60653995756902
  Br          0.27722854139416      0.56265803321652     -2.08344225431582
  Br          3.32421410773053      1.48168348348337     -2.31717081514596
  Br          2.59936458937709     -1.56813863421619     -2.52662310036773
  Br          3.73580603866568      0.23989301896985      2.68999572727542
  Br          0.59038260704294     -0.20695679640082      2.85215925481833
  Br          2.58414983156374     -2.68035177889347      2.91561002923750
  H           0.88955359491962     -6.67095420574791     -1.10813836065739
  H           0.90260027702730     -7.24038298212351      0.49753221388929
