19
Coordinates from ORCA-job NEB_product E -43.742353495090
  C           2.61883558760532      1.28567536633499      0.32600470184688
  C           1.45882918878764      0.88210569656966     -0.52347500134064
  N           2.69935418196808      0.35751400082121      1.49469113883395
  H           3.55490664692995      1.19653925319117     -0.23617948213145
  N           1.50972910707729      1.55907564455302     -1.92263244366421
  C           2.41894202709704      2.79483519893313      0.79354114877029
  C           0.95124298571712      3.05878575955687      1.00926833329976
  C           0.22223169604240      3.80765851203944      0.20351428815266
  O           0.53769771638963      0.18219130112536     -0.28455233382448
  O           3.20056178648838      3.07384805065274      1.90121172655575
  H           2.80626947396654      3.41650876369449     -0.02159697261156
  H           0.52493482403540      2.59014061263831      1.88617463367713
  H           0.64136697344926      4.28775062472066     -0.66609403395820
  H          -0.82504123141217      3.97393549224029      0.38396498958564
  O           3.35384907792996     -0.63374448984514      1.33111006672226
  O           2.10687559948209      0.67200849025660      2.49353249815244
  O           0.55427023415147      1.36879485583432     -2.61566457955538
  O           2.49098796446212      2.21453737648150     -2.17081928238512
  H           2.77585615983250      2.72033949020141      2.69840060387428
