19
Coordinates from ORCA-job NEB_reactant E -43.753788984230
  C           2.07455741060394      0.47435433395146      0.05442048732872
  C           1.42437302112639      1.27576750024291     -0.80825532161576
  N           1.78750702123097      0.32452231099418      1.44119039009314
  H           2.90578513091822     -0.11771191521494     -0.30255930881529
  N           1.85855972361645      1.18614151271445     -2.23989307187948
  C           2.44322319634748      3.80140454797477      0.81847501400976
  C           1.37100748532249      3.23671447466143      1.36634446801112
  C           0.17885256805857      2.79558323769978      0.57070966483599
  O           0.52511670401797      2.21925191780108     -0.69283916326211
  O           3.54713856957530      4.19742485797980      1.46599106304286
  H           2.52043722982849      3.98997636869276     -0.24466467419200
  H           1.31971172894754      3.06662489782461      2.43218018715449
  H          -0.46197923568707      3.63754108228887      0.29229159389877
  H          -0.40596835214474      2.07552904718477      1.15587894161708
  O           2.73202403860373      0.16388653171123      2.18106089484182
  O           0.62234767720535      0.34004674470110      1.78709839174671
  O           1.49511272112403      2.07307514596412     -2.95998096482818
  O           2.53297245465756      0.23664389475775     -2.54362656463694
  H           3.47432090664733      4.01782350806988      2.41347797264930
