22
Coordinates from ORCA-job NEB E -48.198578260910
  C          -0.13864049819927     -1.02199909020909      1.44248251461217
  C          -0.13539769158355     -1.53499213148048      0.21436678966011
  N          -1.15616558852272     -0.39285640194707      2.21188439235972
  H           0.74741176558393     -1.17230315727877      2.05535885468495
  C           0.99838960536553     -2.23313661260150     -0.42547947046130
  C           0.34779891750411      1.40246825792857     -0.00029122652805
  C          -0.52937304071307      0.98152176097362     -0.90708570371629
  C          -1.65107305906926     -0.05517817602716     -0.86426969481768
  O          -1.20013144564094     -1.34916928047292     -0.66410632965708
  C           1.30862225189265      2.39335045399954     -0.65050298239887
  H           0.50390230050426      1.17489918647118      1.01798556729358
  H          -0.68188358526484      1.69032164807600     -1.73166327155656
  H          -2.14546692135765     -0.06768991429604     -1.83943014193556
  H          -2.36784503986593      0.31032903202797     -0.09593946154157
  O          -2.31904187957962     -0.43969712313924      1.87219087829753
  O          -0.75697817997458      0.19373795333419      3.21688948148804
  H           1.92856250948630     -1.91418644784543      0.01606166339416
  H           1.00143091482660     -1.98885071415327     -1.48667719657720
  H           0.93531827025191     -3.31134802472506     -0.28744867639270
  F           0.90991277472620      3.22186713402434     -1.59183824982842
  F           2.34756799156709      2.83651002552154     -0.02515220170369
  F           2.05307962806284      1.27640162181908     -1.47733553467529
