22
Coordinates from ORCA-job NEB_reactant E -48.258148828440
  C           2.05874108724496      0.76874321249518     -0.07133248093219
  C           1.55934345956459      0.55161583724693     -1.30974147373986
  N           1.70502452139908      1.72749219934879      0.89646102554421
  H           2.86401989457849      0.13421654572404      0.26680766721344
  C           2.02532329196725     -0.65504530660875     -2.07301061325278
  C           1.79677613039995      4.46868989000436     -0.81435752030619
  C           1.64190406138195      3.48059352819443     -1.68018032407848
  C           0.41457135911785      2.62745816638300     -1.76501151032721
  O           0.72771861181122      1.27400397960977     -2.05723905379800
  C           3.01505177389982      5.33859004285850     -0.81307242558850
  H           1.05326315371473      4.73170212715560     -0.07736181625800
  H           2.42401507166010      3.24161983933212     -2.39058882161128
  H          -0.19003956175195      2.94768603855144     -2.62051350654295
  H          -0.17837895149184      2.71005612026947     -0.84684169452144
  O           2.56580129575066      2.04737326610491      1.69336518380830
  O           0.55712056206156      2.14965037785369      0.92975634310884
  H           2.87505837377580     -0.38703720223291     -2.69942961952549
  H           1.22396824775181     -0.99092245671651     -2.72584883738478
  H           2.32015947630838     -1.45782911122536     -1.40644698388604
  F           4.06745077931578      4.76579723854708     -1.41880571486664
  F           2.79386398680052      6.49706838749767     -1.46857222723522
  F           3.40674337473928      5.67287727960656      0.41876440418027
