22
Coordinates from ORCA-job NEB_product E -48.259593456480
  C           2.47873184531454      1.96571691402271     -0.99892597910198
  C           1.60795696795560      1.00665618818154     -1.86210113373045
  N           2.51800659760132      1.41189392787998      0.38300495168772
  H           3.50540629240770      1.90149302630206     -1.38016887201592
  C           2.19197900715182     -0.35994287628871     -2.01220564032138
  C           1.96508917222021      3.41738658305058     -1.07596469526028
  C           0.83020573971683      3.76605921618389     -0.14226516155661
  C          -0.43363183708005      3.75642432317287     -0.51939048750986
  O           0.59997425492408      1.38716179575646     -2.38066952617081
  C           3.13215126889206      4.36767400474493     -0.81850533238285
  H           1.63571318257237      3.58263253840257     -2.10912348178697
  H           1.11435743132706      4.05121296836438      0.86002236104956
  H          -0.72980126120076      3.46576574194823     -1.51311105413688
  H          -1.21881310493492      4.01562858416690      0.16748117904532
  O           3.47770875975050      0.72754751924282      0.64247812010722
  O           1.58805442725544      1.62735970090531      1.11121144624022
  H           2.91118738487769     -0.33101056332841     -2.83148208656916
  H           1.41150627802239     -1.06936944173623     -2.27480547580179
  H           2.71945549213526     -0.68777975249920     -1.12014574661005
  F           3.67812283276770      4.18908419016091      0.39222919265514
  F           4.12644208631413      4.19074165471427     -1.70911642926104
  F           2.76769718200902      5.64846375665214     -0.90244614856914
