20
Coordinates from ORCA-job NEB E -49.870469535990
  C          -0.24541761915946     -1.17874112958094     -0.06697077844173
  C           0.11994278183365     -1.16476272770262     -1.43291164545481
  C           0.82020933407785     -1.53605026079631      0.94716819767371
  H          -1.15700665600567     -1.72584886914539      0.16442567383490
  H          -0.63829045313003     -1.45695241993917     -2.16398345037477
  C          -0.73430634486969      0.66404793020690      0.05904454540056
  C           0.40972923304752      1.36521842880215     -0.35437731235303
  C           0.87595373967226      1.13555199721992     -1.68118018067105
  O           1.11378955612524     -0.44902067280525     -1.84126732140113
  C          -1.30448078827224      1.02286230218490      1.41172095836205
  H          -1.56275241812448      0.60122198655347     -0.64296872125824
  H           1.09704411746879      1.72572166564852      0.39391226617881
  H           1.84703632173704      1.55314721333017     -1.91918124642555
  H           0.15290317363771      1.29313246802499     -2.47781098189123
  Cl          0.20854735350177     -1.53587299264222      2.61664904022756
  Cl          1.27400560593004     -3.24545858353320      0.57921580045371
  Cl          2.29717394749519     -0.58472601459344      0.87424399411336
  F          -0.39192550597893      1.28069940048133      2.34745108637380
  F          -2.04460847712973      2.14481790357744      1.29370066690638
  F          -2.13754690185681      0.09101237470875      1.89311940874670
