20
Coordinates from ORCA-job NEB_product E -49.917315141790
  C           0.20226113448847      1.58394489712642      1.00098999810892
  C           0.22648805835747      0.89098533925855     -0.36901666091080
  C           1.56292771929805      1.39013700352969      1.67014486009021
  H          -0.53469105720091      1.02740219282407      1.59697554245383
  H           0.76919923355445     -0.06569311224191     -0.36663980882460
  C          -0.30170580031624      3.03629613945098      0.81813763170058
  C           0.75702482315914      4.10382028393468      0.73018101987091
  C           1.04059928437089      4.73061938994497     -0.39535440605926
  O          -0.30941193359753      1.31932213629763     -1.34345053742403
  C          -1.33240268105998      3.43206038169058      1.87551572214730
  H          -0.86034783943549      3.03064570221572     -0.13017782936469
  H           1.25256339212916      4.36107020542681      1.65438383210078
  H           1.78946654223282      5.50159838108442     -0.43380492366414
  H           0.54739652681952      4.48896274691499     -1.32214789294267
  Cl          1.70702402909981      2.22330065756921      3.22986167736212
  Cl          1.81046910361162     -0.35370084207818      1.98794739166013
  Cl          2.86480379476920      1.93677783908933      0.58547569111458
  F          -0.82568130083180      3.66294834366300      3.09031098653913
  F          -1.97363925894534      4.55034455173533      1.51331827323048
  F          -2.27624377050333      2.48665776256371      2.03664943281121
