20
Coordinates from ORCA-job NEB_reactant E -49.913873653830
  C           1.81973301113299     -0.00834280960708      0.01934450315827
  C           1.08639283386414      1.06829019882788     -0.26460316834156
  C           2.25613794572148     -0.49776792291646      1.34601192400187
  H           2.15647066242267     -0.62527402651146     -0.79849670599790
  H           0.86016351673696      1.27501269935322     -1.30659007597465
  C          -1.32538105732022      4.95474717265325      1.17468407227106
  C          -0.57698089392533      3.86944066989587      1.28252917010191
  C          -0.17449696549312      3.00716882611128      0.12996752600671
  O           0.59642111914464      1.93499416854495      0.63329619766380
  C          -1.70873448895229      5.79644616032987      2.35036966887589
  H          -1.71757296571835      5.31912353371564      0.23700778412519
  H          -0.20429173821772      3.53772726338924      2.24194191230858
  H           0.41205862747766      3.59296257816330     -0.59319384506621
  H          -1.06723754599772      2.62475840677649     -0.38655931698997
  Cl          1.72607147208574      0.47568395515623      2.71258211393412
  Cl          1.64754097135377     -2.17098306361634      1.58385879972893
  Cl          4.05023639045605     -0.57908847269195      1.38160230905206
  F          -1.21894455701993      5.35077029101296      3.51159294817651
  F          -1.28244495008649      7.06495809436371      2.21269994080477
  F          -3.04414138766491      5.86757227704941      2.49605424216063
