17
Coordinates from ORCA-job NEB_product E -37.559011144140
  C           1.27418284734841      0.83705762032817      1.27513796531450
  C           1.65377629510013      1.16640224635260     -0.17244412788696
  F           2.41182152992288      0.57695587817263      1.99347546007795
  H           0.64016062769097     -0.05791401947008      1.31383124302297
  O           0.75840000066029      0.65542962316954     -1.01429669763749
  C           0.55658963425167      2.04306873507275      1.88987402794645
  C          -0.54922522790157      2.54253650185867      1.00464198726994
  C          -0.64329983070369      3.79432146960470      0.59843203788631
  O           2.59992061249073      1.81482330398903     -0.50274239204472
  N          -0.08441806969515      1.63471053892745      3.18652858914177
  H           1.27895954461047      2.83231526535760      2.11971203769942
  H          -1.28321929258984      1.79656960036109      0.73203312312146
  H           0.08414935069291      4.53963605530342      0.87353202654915
  H          -1.45220012170720      4.12042638492227     -0.03118165954149
  H           0.98015470611367      0.87150498847971     -1.93534665303522
  O          -0.68476745346957      0.59225626591061      3.19175742357743
  O           0.01611484718488      2.40779954165982      4.09915560853851
