20
Coordinates from ORCA-job NEB_product E -33.591526738750
  C           1.55330710221171      0.66464126179063      2.25441831313115
  C           1.36617876388739      1.31206848833722      0.91483374411079
  C           1.27846652933999     -0.83410585602601      2.15266393568936
  H           2.59224142084221      0.81498649555681      2.56797243753585
  F           2.02454754403652      2.50798460275846      0.86859448767936
  C           0.62742271922395      1.40831149198450      3.26029838287304
  C          -0.81607785009999      1.13420326261163      2.94839586169961
  C          -1.62519942559153      2.00748117883627      2.38009502204772
  O           0.73193217478818      0.96774396352072     -0.01594647622764
  C           0.95759137445801      1.03186423669391      4.70408002689630
  H           0.81920669653961      2.47970333910261      3.13490909270424
  H          -1.17549881413514      0.15306604177815      3.22680508409660
  H          -1.29072397753039      2.99226596551348      2.09697201843236
  H          -2.65499373340613      1.77676414055411      2.17036880367077
  F           2.36627843641977     -1.45831528653772      1.59597339029495
  H           0.42391394015898     -1.03843854709947      1.50067571788384
  H           1.13410221011700     -1.28796647793701      3.13645547139150
  H           0.74001970634550     -0.01396192386544      4.90409991942622
  H           0.35485654158629      1.63525398630370      5.37857447315308
  H           2.00652864080808      1.21834963612346      4.92116029351087
