19
Coordinates from ORCA-job NEB_reactant E -40.672191799060
  C           1.71166074591161      0.02113853414156     -0.04182316539351
  C           0.99275940890821     -0.22106446165580      1.04934446915771
  C           2.18573377542078     -1.05821233808259     -0.96124208681343
  H           1.99686264114596      1.02846547025425     -0.29321957480287
  Cl          0.49615115502047      1.09235563307311      2.07497135474223
  C          -0.30420787177201     -3.87476326447226      3.88716968058625
  C          -0.25272346039856     -3.15340792663511      2.77440737242532
  C           0.15352089911963     -1.72487469997376      2.70038882161392
  O           0.56111206519276     -1.45449271983681      1.37037242670393
  N          -0.74093427250883     -5.24256309335979      3.86127566691736
  H          -0.03904359760370     -3.52682764787487      4.87386692800780
  H          -0.53529119996935     -3.61161225042855      1.83411003285412
  H           0.96209231143958     -1.50164232426292      3.40826161409302
  H          -0.70979489903239     -1.09374559789101      2.96280303011420
  F           3.51810046500841     -0.87789118053852     -1.25001984738484
  H           1.65806436279347     -1.02375176741783     -1.92222418521326
  H           2.07998838249230     -2.04680544037114     -0.50691018119606
  O          -1.07987918372497     -5.71743948873317      2.80078704746204
  O          -0.73587172744337     -5.82826543593480      4.92098059612607
