18
Coordinates from ORCA-job NEB E -40.743309745800
  C           1.06431278543172      0.29263211190407      0.28224524842859
  C           0.47139083852798     -0.13651982676614      1.47257953556654
  C           0.94640696854805      1.71930090764476     -0.12314582940505
  H           2.05576485253703     -0.09922403991966      0.06726476694307
  Cl          1.26113705666498     -1.55557731375791      2.20818567283048
  C          -0.13947367058416     -0.91719170305191     -0.97155435904008
  C          -1.40989524037225     -0.52896153457570     -0.53970331819697
  C          -1.84469185651520     -0.82773679880628      0.74638465232880
  O          -0.69469551314616      0.11413206188444      1.81530800748896
  O           0.22351163239278     -0.59733997583538     -2.22641465927164
  H           0.30689252659098     -1.81280538578896     -0.54553532323575
  H          -1.91629493478282      0.22657437556228     -1.12112009267960
  H          -1.56903365102511     -1.77249543326294      1.19465266704186
  H          -2.78494979429135     -0.41802142239844      1.07992036939316
  Br         -0.77067589527115      2.55771931855074      0.12235385845909
  Br          2.24326806109892      2.76616665458779      1.00197510322606
  Br          1.51285639999641      2.01255559380572     -1.96261868836971
  H           1.04416943419936     -1.02320758977647     -2.50077761150782
