18
Coordinates from ORCA-job NEB_reactant E -40.782539509000
  C           1.59114241120763      0.05411001882713      0.09061330940513
  C           0.94587750296645     -1.10439345462419     -0.12730744308937
  C           1.94935202794716      0.90461480457312     -1.05439300483281
  H           1.85862927348261      0.36943272758042      1.08360189449295
  Cl          0.50589478382736     -2.12789309970689      1.19036916529147
  C           0.22529226155916     -3.55721659002017     -3.92370392608927
  C          -0.34982765170988     -2.68100820980004     -3.10858286494743
  C          -0.10663289612116     -2.65501493384385     -1.63763334953877
  O           0.64614701406303     -1.46746957174747     -1.36129075136005
  O           0.06405121277234     -3.62242626599272     -5.25388193120866
  H           0.87718297216719     -4.34236898492690     -3.56633294080605
  H          -0.98495314373886     -1.89577427175552     -3.49390824241831
  H           0.46662832121953     -3.53072088108776     -1.31639753558628
  H          -1.04998465863595     -2.61154234134821     -1.08038966996998
  Br          2.81957933265719      2.53488698838053     -0.47962490999196
  Br          3.16147263452858     -0.02413060109531     -2.31070812247231
  Br          0.36978726976028      1.41141254409253     -2.11532742182695
  H          -0.49363866795267     -2.89559787750470     -5.56250225505136
