18
Coordinates from ORCA-job NEB_product E -40.779350173120
  C           1.62634987359549     -1.10766326932108     -1.23353886786904
  C           0.93919522006385     -1.19027564473398      0.10766171368039
  C           1.38447272817656      0.24923240963211     -1.87323308890190
  H           2.70942151785262     -1.20648174581254     -1.07195696760191
  Cl          1.53150664367703     -2.54008733423873      1.06756389636057
  C           1.27338796052341     -2.34605000200738     -2.11871765834899
  C          -0.05852408861940     -2.24690796193396     -2.80630966123775
  C          -1.16853444972966     -2.76166613470982     -2.31100539001254
  O           0.10292829513711     -0.47055147328302      0.53509280725626
  O           2.34673425222414     -2.47501773787547     -3.01989297830801
  H           1.26150368151550     -3.21300273901578     -1.43736644168636
  H          -0.05119113724777     -1.74735281515470     -3.76627845400262
  H          -1.18568062501440     -3.26829458188304     -1.35982299854820
  H          -2.10676146853077     -2.67834315807320     -2.82932847088532
  Br          2.22894690158992      1.61720772588573     -0.74804210208541
  Br          2.20072300249534      0.37491474667559     -3.62249981373854
  Br         -0.48108708437917      0.74218758677405     -2.06496817188535
  H           2.08990877667020     -3.03334787092476     -3.76125735218528
