18
Coordinates from ORCA-job NEB E -36.708515876930
  C           0.09019317221893     -1.37934485754349      0.39986982784567
  C          -1.19092825945827     -1.29741217419512     -0.12470500382319
  H           0.20457959421565     -1.21189112678719      1.45831478541446
  H           0.73560879784916     -2.13077083407438     -0.03009040012995
  O          -1.44349468204183     -1.91201228775904     -1.30447296131247
  C           0.71893259973816      0.42942883430857     -0.19175790366356
  C          -0.24815785309855      1.27585831071029      0.33567316695364
  C          -1.59226815276304      1.09066851368297     -0.11750401440540
  O          -2.03496006896062     -0.39813686765898      0.28631707597135
  C           2.13366352063016      0.56190913767876      0.27286230123934
  H           0.67170178983192      0.20800595774421     -1.25601834235667
  H          -0.10423594199028      1.68426565178780      1.32564975227018
  H          -1.72313454943661      1.07593256750722     -1.19862556866307
  H          -2.34437183935635      1.69265477477894      0.37710650334813
  H          -2.32949425019932     -1.67661299132936     -1.61329119468951
  Br          2.86809773566180      2.26803212729784     -0.40130063357969
  Br          2.31247623628749      0.57509946536197      2.20783763716812
  Br          3.27579215087159     -0.85567420151101     -0.42586502758739
