18
Coordinates from ORCA-job NEB_reactant E -36.733430382150
  C           2.42046939173243      0.39754044964142      0.15373364349131
  C           1.59243187771972      0.87739839672854     -0.76318313368349
  H           2.99587382375817      1.01910274176264      0.80810111801796
  H           2.52676038448214     -0.66415531582686      0.24973095647330
  O           0.88121263115354      0.07702586307089     -1.58306427315020
  C           4.28863044356138      3.68049038120463      0.40063663947354
  C           3.41490822678978      3.26901528999338     -0.50445470454369
  C           1.94006976077202      3.18220796285295     -0.25461236480178
  O           1.31544154237367      2.19451300305989     -1.03554594142356
  C           5.74757671184156      3.81244161607329      0.20793795604401
  H           3.96550599104835      3.96123073530979      1.39661606303358
  H           3.72128292311209      2.97940369615293     -1.50065174592130
  H           1.46976168558968      4.12052164829868     -0.57226921615409
  H           1.72844508829738      3.02706074225655      0.81109941820433
  H           0.34515163360814      0.63276949847731     -2.16349699429997
  Br          6.28928171542076      5.67826921657721      0.57115360969635
  Br          6.68100916786982      2.65477701726665      1.50921691580230
  Br          6.38458700086937      3.34688705710009     -1.56244794625859
