18
Coordinates from ORCA-job NEB_product E -36.769954822930
  C           3.44815137371972      1.44619350913130     -0.89758592286884
  C           1.99770695391854      1.34168271972357     -1.31958316501465
  H           3.67430953633179      0.62420978885453     -0.21565241158998
  H           4.05006048945619      1.30854802044032     -1.80180842230237
  O           1.62759567178281      0.06857997785628     -1.45906422071961
  C           3.71690830325927      2.81071557906783     -0.25748434903806
  C           3.05891369662587      2.88423808589649      1.09308723394957
  C           2.14976534234742      3.78499191261937      1.41169879731098
  O           1.26520726680208      2.26891249201438     -1.52390836485855
  C           5.20559493456347      3.09655009493724     -0.12984187888004
  H           3.28500045149359      3.58508766126359     -0.90523474161931
  H           3.37549770584401      2.13365806739124      1.80603659755493
  H           1.81804667854566      4.53170529143058      0.70999176993645
  H           1.69305482162960      3.80278565076765      2.38562535271531
  H           0.70574059452126      0.00596841400012     -1.75627043763074
  Br          5.49421901492960      4.82784204678005      0.72853112320930
  Br          6.12341916705959      1.74211640855827      0.93148331036771
  Br          6.07380799716953      3.16421427926718     -1.88562027052213
