22
Coordinates from ORCA-job NEB E -56.103176553640
  C           0.38685441596311      0.74619476605011      0.70303092420662
  C          -0.98766806738370      1.03938321867398      0.75709174736121
  C           1.25779445132788      1.64214199353374     -0.15791463760759
  H           0.85800374333997      0.55431918613349      1.66579388007945
  N          -1.70855751698592      0.58361371030353      1.92861196317611
  C           0.27861354720631     -0.98704472804545     -0.13044766335373
  C          -0.46188819589388     -0.70029766861559     -1.28094950863769
  C          -1.79047791950014     -0.14299972085479     -1.14454406491202
  O          -1.69262347988756      1.15253739242626     -0.33752369166051
  C           1.62519359208915     -1.66126078900019     -0.27867976070530
  H          -0.24361067862948     -1.44207996703380      0.70849795139077
  H           0.05233738927428     -0.59065955542508     -2.22336135809058
  H          -2.48554908104540     -0.74357618229466     -0.55184871280433
  H          -2.24106280301044      0.17094431373705     -2.08119621560963
  F           2.56206368951725      1.32589000131590     -0.03210909399440
  F           0.96688876590110      1.58619339200133     -1.47215295018047
  H           1.14608167516599      2.69305755565795      0.16219372357191
  O          -2.89006078966693      0.35017389430047      1.78768780287021
  O          -1.07414544053028      0.45466850084458      2.95865416123267
  Cl          1.27429264299387     -3.41167910989775     -0.50539824687454
  Cl          2.56456240652924     -1.11782252440399     -1.67316609220022
  Cl          2.60295765322559     -1.50169767940710      1.19772984274207
