22
Coordinates from ORCA-job NEB_reactant E -56.130515511810
  C           1.46669249242193     -0.08419473695608     -0.12792666121697
  C           1.40806984832712     -1.29856217272235      0.43231942826486
  C           2.09921061105370      0.33286973007499     -1.41854919872014
  H           0.98908524783116      0.70871434224629      0.42924328289196
  N           0.69947363212413     -1.38080256147577      1.74840970716812
  C           2.90667278940613     -4.99414635781743     -2.16694988308334
  C           2.81976035113377     -4.27116223404861     -1.06197754146269
  C           2.55083298218518     -2.80095155282708     -1.06009842118378
  O           1.82748228573233     -2.51121314697993      0.13135194231966
  C           3.20930668629085     -6.44735458248672     -2.22610494154382
  H           2.77171703211918     -4.54685918880671     -3.14242826383628
  H           2.94468262655025     -4.70917920522373     -0.08276970222253
  H           1.97617923177276     -2.50637380674642     -1.94317474303378
  H           3.50574856921379     -2.25866467978152     -1.05287028226893
  F           3.42754432200400      0.03905378550240     -1.45992465198005
  F           1.55405691779632     -0.30607322541003     -2.48990184609270
  H           1.99554554947861      1.41275743769224     -1.59265377290617
  O           0.66971056182578     -2.46048467652243      2.26948436314393
  O           0.21876602136794     -0.36383680567253      2.18123341208149
  Cl          1.88172978392283     -7.28597531764981     -3.08274401081888
  Cl          4.71517532609286     -6.69067121810276     -3.16356947803755
  Cl          3.41375713134938     -7.20248982628599     -0.64209873746242
