21
Coordinates from ORCA-job NEB_product E -33.424428522950
  C           3.30241635426369      1.50021637817315      0.07289438477690
  C           1.78789372817988      1.38082012813258     -0.12333488395581
  F           3.82095405941872      0.22824047559903      0.13614197258954
  H           3.79911691004520      1.97902040243186     -0.78033272473367
  O           1.15131923657294      2.37756853652212     -0.75823402920430
  C           3.60913149493224      2.24895888204856      1.38821203032190
  C           2.97116478916194      1.52817057063939      2.54116381607751
  C           2.08556058255870      2.07254304059272      3.35185762557242
  O           1.15725303144822      0.45698193077541      0.29782716378994
  C           5.12374785083327      2.34665101745301      1.58505673609633
  H           3.18589211198728      3.25675962674585      1.31343746035415
  H           3.28909246403530      0.50387096801322      2.66963299059686
  H           1.75065098020387      3.09091707047382      3.23250712005026
  H           1.65425280360606      1.52305799830162      4.16974436714313
  C           1.81280799541876      3.46908330883858     -1.36789986158143
  H           1.01649141857041      4.10033012188167     -1.75988596210706
  H           2.44640181701295      3.14031176746471     -2.19560364569891
  H           2.40610601693431      4.04263368233393     -0.65282689164990
  H           5.56032305211412      1.35154751374723      1.61262444837382
  H           5.34071974189960      2.84822621966525      2.52469338752287
  H           5.58370356080252      2.90809036016627      0.77402449566543
