23
Coordinates from ORCA-job NEB_product E -31.871611082400
  C           3.11357140591106      0.54379039675974      1.95114179185680
  C           1.74803771894858      1.15588980269995      1.67125933567523
  Br          3.53002435470453     -0.52735740558555      0.35101890611508
  H           3.87813349134194      1.32585050149762      1.95616445805341
  C           1.74978880882419      2.25687267866821      0.63578217891678
  C           3.18606888080739     -0.28700888591855      3.23041331560158
  C           2.28137038719032     -1.48441787704568      3.19227798089737
  C           1.37104436599909     -1.75508602174302      4.10618446953112
  O           0.75847028468921      0.81128820901861      2.25973957446416
  C           4.62524883846944     -0.73103570236204      3.50297163159868
  H           2.85635198328146      0.37735671359552      4.03936332271324
  H           2.44410085308394     -2.16128321441094      2.36379501430457
  H           1.18874313184779     -1.09795852250190      4.94041485207028
  H           0.75834556789184     -2.63790896766160      4.05075437197106
  C           1.91234823887782      3.60141229106370      1.35151778475300
  H           0.79150770110590      2.24320901669479      0.11431268306374
  H           2.55379530285336      2.12071775761387     -0.08792922370546
  H           1.11582933465126      3.73819857417901      2.07912530508518
  H           1.86660942954552      4.41207016922515      0.62905525438848
  H           2.86791607365915      3.65582185068648      1.86986542876774
  H           5.29070070038370      0.12820670177001      3.56975941021695
  H           4.97996515309439     -1.38524085153996      2.70872754797558
  H           4.67072799283810     -1.27808721470341      4.44128460568543
