17
Coordinates from ORCA-job NEB E -34.591355595810
  C          -0.08575118801269     -1.26466312098735      0.78359252975514
  C          -1.41162452188632     -0.87297089290472      0.95720497263278
  F           0.80130276884957     -0.91719065029196      1.72850396109788
  H           0.12753478376941     -2.25525862599127      0.39045320452078
  F          -2.28172881325436     -1.55529101350796      0.12620285354693
  C           0.39948895309869      0.02454308958314     -0.66754188540241
  C           0.01911366166653      1.22354907008995     -0.07787208113517
  C          -1.35676287222549      1.44641665029092      0.19409815534295
  O          -1.76754823498744      0.28637931685236      1.30705965384890
  C           1.85347681279946     -0.24230171374285     -0.96993620512582
  H          -0.25710582981557     -0.42019679803937     -1.40972954555897
  H           0.75573503092244      1.76089723822173      0.50135220607858
  H          -2.06068040150361      1.19896845414695     -0.59554045712015
  H          -1.61233103057492      2.35272499069850      0.72667880611572
  F           2.68654250640336      0.41767834620057     -0.11158419060336
  H           2.08698300757006      0.12334451608977     -1.97856655066589
  H           2.10335536718087     -1.30662885670841     -0.90437542732789
