17
Coordinates from ORCA-job NEB_reactant E -34.617119555700
  C           2.12819496882789     -0.02710749882747     -0.22930442440857
  C           1.44052229724669     -0.12466447926212     -1.36298823212241
  F           2.88294427058249      1.04345080143494      0.09840510026780
  H           2.14105296976376     -0.80906854853197      0.50947025094053
  F           0.73212505034178     -1.25420948159918     -1.53136029632878
  C           3.99617446465394      1.86183966209178     -4.11422630544777
  C           3.45999360102642      1.51616275841711     -2.95630455270984
  C           2.05139416953967      1.84376042142241     -2.56424283695151
  O           1.24942374682941      0.67266586348632     -2.41398038546938
  C           5.39748735151191      1.54735432485329     -4.52613064341493
  H           3.43725701840619      2.42046084141660     -4.85229138040142
  H           4.03923541832364      0.95720434474063     -2.23539959331758
  H           1.55110876680109      2.40680032437653     -3.35511431630513
  H           2.03995886269845      2.43149084996608     -1.63955958986453
  F           6.06879491121417      0.82694402712065     -3.57403911809424
  H           5.97146144515436      2.46810020614993     -4.69181465073325
  H           5.40677068707815      0.94671558274447     -5.44461902563899
