15
Coordinates from ORCA-job NEB E -30.161871119620
  C           0.05259400271712      0.16570704662764     -1.37771656574038
  C          -1.04652446189262      0.74543054382733     -0.73636987258117
  O          -0.08159455986106     -1.10739759007568     -1.84761283349119
  H           0.69747201768484      0.82645019394848     -1.94762558126739
  Cl         -0.84931670433090      2.50222606939269     -0.52141374434191
  C           1.12936041624823     -0.19760377858570      0.36893527447921
  C           0.29567230742688      0.05903646805379      1.44516229043331
  C          -0.95165630456779     -0.57438252071917      1.46072215335280
  O          -1.79973969212635      0.15904744380251      0.06582680595671
  I           2.94222696674782      0.88544732120541      0.19905594079205
  H           1.24701052333545     -1.21917655528028      0.03669304492396
  H           0.40593413613777      0.98978410862308      1.98504029787937
  H          -1.64601476305658     -0.33347815480388      2.25129608857078
  H          -1.01986499487528     -1.58787314468221      1.08872054341945
  H           0.62444111041247     -1.31321745133402     -2.47071384238560
