15
Coordinates from ORCA-job NEB_product E -30.209707929750
  C           2.76598818439640      0.11903634072307      1.03204505722380
  C           1.98604171803258      1.40839718848810      1.26730205383452
  O           1.81587920704151     -0.82870161829846      0.61892752533781
  H           3.51980841222876      0.29170977329372      0.24798465298555
  Cl          2.57188418009042      2.73271091377001      0.28166145563313
  C           3.47085011873527     -0.33644761444611      2.32148517969050
  C           2.53768575955129     -0.67921466605800      3.42464230933983
  C           2.58475664323731     -1.83220274622128      4.06904064753867
  O           1.07791201823299      1.55816110773308      2.00903269218769
  I           4.84135879735669      1.24043145926929      2.95795455783389
  H           4.11932275070574     -1.18501369441412      2.08773156587355
  H           1.80278108603300      0.07134689194421      3.67477987136603
  H           1.89423076234094     -2.06093178545344      4.86104686530369
  H           3.31479443236602     -2.59161351306469      3.83581975805278
  H           2.22320592965109     -1.70196803726536      0.57444580779855
