20
Coordinates from ORCA-job NEB E -29.873387440920
  C           0.77481284874204      0.84844424015626      0.13058270428051
  C          -0.41026153091653      0.97564159552237      0.88490344834398
  C           0.91462291063300      1.45732056498596     -1.13174314580844
  H           1.70855819660262      0.77454370552689      0.68120351452029
  C          -0.30881880170508      0.76652294279368      2.37905042085592
  C           0.50312748844592     -1.07838186888230     -0.62149439436932
  C          -0.74210418117474     -0.87030987154693     -1.24056802950623
  C          -1.87416839823634     -0.63544897444589     -0.48629896391642
  O          -1.54169121675550      1.01385778551065      0.32484645246171
  N           1.60646610217045     -1.37619073690152     -1.38095793448206
  H           0.51598438635585     -1.54245670790532      0.35923451034836
  H          -0.72971917792135     -0.56024083182074     -2.27571281814142
  H          -1.99474951746472     -1.13257968872972      0.46542801277425
  H          -2.79389966140175     -0.38023419212168     -0.98569178082620
  N           1.07825786718795      1.91428061226445     -2.17185375372119
  H           0.34441566601348      1.51381516742619      2.82475621415304
  H           0.10120032402628     -0.21972016998989      2.59915459354937
  H          -1.29705137578918      0.84711687604284      2.82381359938699
  H           1.65105354646582     -0.90571808556109     -2.27431229630112
  H           2.49396452472176     -1.41026236232422     -0.90434035360199
