20
Coordinates from ORCA-job NEB_reactant E -29.910014563650
  C           1.69050862474587     -0.18740834570553     -0.06816592508487
  C           1.43680654193573     -1.25358358047667      0.71695031830571
  C           1.56900149746510     -0.07040547152437     -1.45626411523579
  H           2.04043256808321      0.71997419920918      0.40514696636532
  C           1.63666330337646     -1.17301546167491      2.20325179327685
  C           2.54744889160561     -4.40449474610652     -1.69246518663615
  C           2.02997579937644     -3.17628319568802     -1.70272629221977
  C           0.76124035337144     -2.83376369563820     -0.98932118835294
  O           0.98052130200929     -2.46502185616144      0.37828987292753
  N           3.66396506743699     -4.79442029087993     -2.39346277347671
  H           2.04611050964857     -5.20913134927065     -1.17045144387596
  H           2.53412141420356     -2.37569690207061     -2.22221438400486
  H           0.11404339543652     -3.71149828703745     -0.91209097499875
  H           0.22585888026284     -2.03122317662316     -1.50477756287711
  N           1.50573560225292      0.11112032734428     -2.59079891185686
  H           2.34301672088592     -1.94021184817627      2.51569481797078
  H           0.69252048821067     -1.37139679926480      2.70780462727726
  H           2.00656683141313     -0.19784398854428      2.50211481858707
  H           4.23985480739967     -4.04518347929742     -2.74537746142983
  H           4.17730740088007     -5.58151205241325     -2.03333699466092
