23
Coordinates from ORCA-job NEB E -43.002530694140
  C           0.58939401761413      0.14847177733959      0.37616457861938
  C          -0.49875535679203     -0.23384485124222      1.18760325504477
  C           0.53248114694708      1.57759824772161     -0.14297043259145
  H           1.57887777044776     -0.12558124219707      0.73420799360821
  C          -0.37817921766687     -1.17941186381628      2.31294447753032
  C           0.29597230604310     -1.03037702521761     -1.08089808999918
  C          -0.97529158097279     -0.65847750519930     -1.51291711978397
  C          -2.06094598799239     -0.78217395699868     -0.56453060797417
  O          -1.72421511010366     -0.03361112306280      0.73356385619055
  Cl          1.62278657923280     -0.90726777604358     -2.20309525096178
  H           0.40403923399530     -1.95511292296824     -0.52123511760375
  H          -1.07821005462832      0.01453576203709     -2.34950612436536
  H          -2.22616367543895     -1.80441175400492     -0.21714485933113
  H          -2.99410520705429     -0.32948720703376     -0.88750128722507
  C           1.73788238267237      2.03365085348014     -0.95273356830547
  H           0.47823851668764      2.20313941468069      0.75453563513610
  H          -0.38940763704136      1.73896547582291     -0.70194111563497
  H           2.66282805669107      1.73760671271816     -0.46362361785219
  H           1.72591108957569      3.11820415077202     -1.03030850860907
  H           1.72927996710640      1.62519206037979     -1.95705057864600
  Br          1.21622888527326     -0.91984994922444      3.36678134118801
  Br         -1.93639657173024     -1.06615938948589      3.45020829786032
  Br         -0.31224955286569     -3.17159788845719      1.66944684370590
