23
Coordinates from ORCA-job NEB_reactant E -43.029701795050
  C           1.76954760120653     -0.25489481125853      0.03010959494282
  C           1.53104540211724     -1.55409356061356     -0.12973796379171
  C           1.87348769459497      0.72092178782312     -1.09183084961799
  H           1.93254130051311      0.14179186477553      1.02251532733241
  C           1.43322784806913     -2.50289497876111      1.03442842272382
  C          -0.34509911382788     -4.10682491377412     -3.43760696425015
  C           0.07370347559868     -2.87964065787465     -3.17685616953125
  C           0.02172821054441     -2.29068196787221     -1.80476526292396
  O           1.37333543825937     -2.14327809189820     -1.35426611767245
  Cl         -0.27930976457902     -4.79617256209401     -5.00204761769271
  H          -0.77431854445051     -4.75900936921300     -2.69151595074511
  H           0.51861343633471     -2.26404752903787     -3.94338190040775
  H          -0.54142246417001     -2.94904139335081     -1.13215706528782
  H          -0.46099172995973     -1.30398687054146     -1.82523530715914
  C           3.16745094715621      1.52636437967725     -0.99124091916311
  H           1.02151600739821      1.40594027037581     -1.03745951374125
  H           1.83450839155492      0.19197721723255     -2.04494702175986
  H           3.21034999998413      2.06740130626757     -0.04882428735764
  H           3.22421076805091      2.24393207502799     -1.80536842560839
  H           4.02958632217973      0.86663567353071     -1.05067799389339
  Br          2.74808791305967     -2.13618850884425      2.42032190787241
  Br         -0.35990351723611     -2.35733372547163      1.88252958019073
  Br          1.67350437760132     -4.33287563410514      0.44171449754150
