23
Coordinates from ORCA-job NEB_product E -43.042943575340
  C           1.85229730739285     -1.56563014052667     -1.27586970455018
  C           1.20028156294730     -1.37601987505226      0.06601315652342
  C           2.02855430292239     -0.18688001579948     -1.93494872955825
  H           2.82739587664350     -2.05401106788006     -1.18392758435898
  C           1.86143809679994     -2.06600911866743      1.26182022240093
  C           0.92870391541166     -2.49244791520790     -2.10483215707953
  C          -0.44581539640738     -1.95294722505855     -2.30560750047887
  C          -1.52535935608513     -2.54475254459370     -1.82795008871261
  O           0.19340741521303     -0.75394540635872      0.24857500648204
  Cl          1.69376057638972     -2.76939949041838     -3.70914346829642
  H           0.88260088069323     -3.48028744258673     -1.63779563925849
  H          -0.51798742371308     -1.04551230238442     -2.88565536694787
  H          -1.47130148831461     -3.45745056119785     -1.25644318096380
  H          -2.50766251830581     -2.13570518503174     -1.98366916049422
  C           3.11662914457812      0.63970820673444     -1.26325373100550
  H           1.08041331297946      0.35028590026321     -1.88324444627498
  H           2.28659144002696     -0.34386790375654     -2.98259092668330
  H           2.84900187919742      0.88552097577068     -0.23742186630334
  H           3.25442608587494      1.57203581924553     -1.80445708429566
  H           4.06525982114828      0.10717213336179     -1.25663467509923
  Br          0.89993393015793     -1.61858545699217      2.88025955044240
  Br          1.77701700008234     -3.99517196973693      0.98160385490384
  Br          3.72151363436690     -1.54839941412610      1.45297351960860
