16
Coordinates from ORCA-job NEB E -29.782233767660
  C           0.70189752888861      0.33507330424468     -0.86283466601719
  C          -0.63444607556891      0.62901517174435     -0.70190145527099
  Br          0.54419951321405     -2.05900151980873     -1.79101869021376
  H           1.32705117146336      0.55562818458460     -1.70533400845661
  N          -1.57582100629536      0.38475982173037     -1.63185907245127
  C           1.43902578489513      0.33449452451163      0.48777785246539
  C           0.72130313904837     -0.40970686046892      1.50316507392807
  C          -0.74509449462661     -0.15023304057470      1.41931712397968
  O          -1.01401538512973      0.97319510214750      0.58479936439710
  Cl          3.18040596568189      0.07279360097652      0.36579620236776
  H           1.33402023015032      1.40650333342142      0.75639897350209
  H           1.09074217437499     -1.34607587040594      1.87977527838838
  H          -1.21014494492573      0.05216225931083      2.38422948488960
  H          -1.22618632286045     -1.06132378100270      1.00659323337062
  H          -2.52122486627774      0.65710208002709     -1.41445421131017
  H          -1.41171241203222     -0.37438631043799     -2.28045048356869
