16
Coordinates from ORCA-job NEB_product E -29.872134461550
  C           3.24824234501432      2.08085893892109      0.75134837390667
  C           1.76984390054916      2.49913749877461      0.75186662636729
  Br          3.65692768245838      0.57703366731137     -0.41277638194334
  H           3.83926814571042      2.91813658263059      0.37187916010675
  N           0.88773013655393      1.65431424668345      0.20267514862749
  C           3.64487352939946      1.79114801437001      2.19721866331835
  C           2.93494257515379      0.61149225887230      2.77081913687494
  C           2.14419050409877      0.68369955227166      3.82509986926329
  O           1.46671009786958      3.54651266498613      1.27549697930427
  Cl          5.42305834061825      1.50326721414308      2.28926237343110
  H           3.44389791994768      2.69293926953312      2.78327881310133
  H           3.11850698264279     -0.32965113260695      2.27019872967678
  H           1.96208027085265      1.61472216221741      4.33587545412399
  H           1.64393621903450     -0.18573981284545      4.21441460326853
  H          -0.08482444435903      1.91399533054463      0.20405248883545
  H           1.16341579445534      0.79513354419296     -0.24401003826289
