16
Coordinates from ORCA-job NEB_reactant E -29.838293631940
  C           2.10958000692087      0.27787312356799      0.08789180506174
  C           1.59514120425031      1.40921826500307      0.58899771076986
  Br          2.63879961349465     -1.28702012950510      1.02264186334488
  H           2.25027822543071      0.18371508914950     -0.97407704284492
  N           1.27008728379172      2.45044701472380     -0.26893850229005
  C           4.13415447724197      2.54220083818778      3.63093094748809
  C           3.53769585381695      1.66642007418623      2.84112340130632
  C           2.08559271736896      1.31890098105675      2.97082882653074
  O           1.31477965496088      1.77659639719455      1.86612920057992
  Cl          5.79625000340649      2.94288632174104      3.48819338965172
  H           3.63171619413223      3.05879018263787      4.43481109493746
  H           4.08387799877512      1.17892004879283      2.04742028647517
  H           1.64175546793189      1.83541481298969      3.82518076416019
  H           1.96668319535296      0.23936987604971      3.11061878822138
  H           0.68607312393292      3.14800216196614      0.16669543959718
  H           0.98643497919136      2.19496494225815     -1.20064797298968
