21
Coordinates from ORCA-job NEB_reactant E -53.553928878520
  C           2.12996773186338     -0.74747282410323     -0.31338820981528
  C           1.61076967940449     -1.04782776253837      0.89208745951070
  N           1.64099544390141     -1.15963626210806     -1.58384997302782
  H           3.02270419080557     -0.14421666592424     -0.39036312394302
  C           2.21721444634426     -0.44390249039966      2.13841781727269
  C           1.35314954784596     -4.35628948935538     -1.30892621548875
  C           1.34049969696762     -3.78431938715013     -0.11295016255832
  C           0.21414746781706     -2.96229644145005      0.42083621307498
  O           0.66746522425284     -1.90781034031668      1.26010333642518
  N           2.47255530946109     -5.16745122064569     -1.72257964491209
  H           0.56601914919943     -4.28603536775589     -2.04438866597927
  H           2.19530426819295     -3.92361760688177      0.54217024022568
  H          -0.40277628635977     -3.57213535465048      1.09055774016407
  H          -0.41126019268594     -2.57037924621475     -0.39125954797640
  O           2.46081948310400     -1.32104866984057     -2.45731683953036
  O           0.43819955742143     -1.28979735523000     -1.72119260217534
  Br          3.00845171251600      1.29921324202280      1.87587268742991
  Br          0.86685067766563     -0.29730430019697      3.52108253576502
  Br          3.61289464923803     -1.69809876245828      2.75762205674539
  O           3.43356032495926     -5.21718239956969     -0.98957988804472
  O           2.35746791808528     -5.74329129523290     -2.77705521316225
