21
Coordinates from ORCA-job NEB_product E -53.551415267730
  C           2.32329686129818     -1.99684099964557     -0.17358625149424
  C           1.46644100312914     -1.24282985275130      0.83191024421742
  N           2.40624007048766     -1.11292848298935     -1.40374271214040
  H           3.35730353527944     -2.13201500736142      0.16817741531316
  C           2.12452486999460     -0.95967960336124      2.17221251136420
  C           1.69370567724031     -3.35935107786781     -0.49899848553924
  C           0.27822116734221     -3.29404126393201     -0.98662487340228
  C          -0.73638856311077     -3.77810129534770     -0.29506883348252
  O           0.34545192106736     -0.90162552492810      0.60664091015104
  N           2.57408110593949     -4.06393264611551     -1.51836570006903
  H           1.74794560939769     -3.98706485783554      0.40119554661663
  H           0.13327629816104     -2.83270816702562     -1.95198507401021
  H          -0.60575779048262     -4.25118346681305      0.66514122283071
  H          -1.74344827173144     -3.71594397063854     -0.66514126810035
  O           2.73207927606205      0.01971891917327     -1.18414506240505
  O           2.15056604353739     -1.60906303259268     -2.46029141936663
  Br          3.75900846483762      0.07246038225534      1.90232927123596
  Br          0.90345427879461     -0.01163502918924      3.32300668930580
  Br          2.55852861263348     -2.69727625105470      2.96666382931487
  O           3.74741046492776     -3.80236233197104     -1.47517922126450
  O           2.03265936519481     -4.85509644000819     -2.23054873907532
