23
Coordinates from ORCA-job NEB E -55.288939037210
  C           0.28252790689907      0.92019931334764      0.35237967242884
  C          -1.09079225423542      0.67460970772950      0.53154050036311
  C           0.59932986455558      2.03540467729689     -0.62855687085640
  H           0.87757996676798      0.99437347403368      1.25686246279399
  C          -1.67700285454062      0.24220799522586      1.85965228572248
  C           0.90461223777918     -0.64056363202239     -0.58939930892146
  C          -0.23157380202026     -1.35700989962364     -0.99323027834149
  C          -1.26284907307625     -0.59871147992622     -1.62099208977812
  O          -1.83153177272589      0.40820601207115     -0.49967443291498
  C           1.93381326759452     -1.36715449333697      0.23093411626346
  H           1.39588007685012     -0.06762993465882     -1.37293873661791
  H          -0.53869127863826     -2.21421071417875     -0.40746520995011
  H          -2.15877726846980     -1.14397745114417     -1.89427118635370
  H          -0.94205300012595      0.08217682165828     -2.40656053198755
  F           1.90291106474497      2.01181803796647     -1.04195799610159
  H           0.45145697750314      2.99574890632102     -0.12210169084954
  H          -0.02725529833191      1.99051521621668     -1.52385589131119
  Cl         -0.57735445336623      0.44036396585675      3.22404283772206
  Cl         -3.12133485347568      1.25880898825398      2.15411981418787
  Cl         -2.21475158770304     -1.45952036703202      1.78182471414917
  Br          2.76981813269773     -2.72982365276704     -0.92438474874342
  Br          3.36424744136261     -0.19898461269788      0.85268556998108
  Br          1.19179055995438     -2.27684687859000      1.78134699911539
