23
Coordinates from ORCA-job NEB_reactant E -55.328068780840
  C           2.18581969326117     -0.49882734626289      0.23042327254693
  C           1.39495973291189     -1.56867010832443      0.30693688480282
  C           2.56798430479602      0.16755166990503     -1.05503648929739
  H           2.60388839872060     -0.09115435969235      1.13693950393935
  C           1.05270297280138     -2.15848147053004      1.66699143866500
  C           3.85682763185140     -3.70023687749070     -0.78272758376811
  C           2.54620170473364     -3.86686775142142     -0.86327906391167
  C           1.66788722857516     -2.92670588451061     -1.62812792010300
  O           0.80595508673866     -2.20359419722665     -0.74038239262996
  C           4.79639023882603     -4.53505165026665     -0.00531479406785
  H           4.34675675959846     -2.89601972074068     -1.32016340960383
  H           2.03331709170342     -4.65015596251445     -0.32180166255762
  H           0.97934653283490     -3.47799410917218     -2.27295782335051
  H           2.27295143712451     -2.24726132068185     -2.23496585637172
  F           3.70447017750076     -0.41487838463988     -1.58531899655458
  H           2.80960971761336      1.22074346744159     -0.89248484259620
  H           1.78197874384144      0.06575407870172     -1.81014839368986
  Cl          2.53116480307151     -2.85835168721524      2.38603209831327
  Cl          0.45065063076586     -0.89600220379796      2.76426267147114
  Cl         -0.16642627202008     -3.42981120901275      1.53814244065287
  Br          6.07604141892663     -5.38801402323097     -1.24175013951745
  Br          5.82058599587646     -3.38354446588052      1.21442793112832
  Br          3.96863596994681     -5.93432648343612      1.04670312650004
