83
Coordinates from ORCA-job A2R E -109.248840177630
  Ru         -0.00005789938905      2.42649661143949     -0.20477171578684
  H          -0.43339289058823      0.97985587200967     -0.59574305024474
  N           1.08973727661945      1.53039216413309      1.31813332397469
  C           2.19845549592537      0.81812217943178      1.03555192346080
  C           0.70213971465388      1.61292890257956      2.60597987729937
  C           2.95090243816600      0.19572427387021      2.02114418707790
  C           1.40137573449256      0.99059662510152      3.63029951154407
  C           2.55067771209461      0.27402606638012      3.34375558924559
  H           3.82756636223159     -0.36641015329353      1.74119570464016
  H           1.04608234742826      1.08374325952921      4.64559163737184
  H           3.11600577668115     -0.20803610480064      4.12579443943931
  P           1.94264146576126      2.10570560766145     -1.36429049341036
  C           1.97166306569957      1.42025481343785     -3.13614367447419
  C           3.35623202790179      3.37556464473087     -1.17570976449516
  P          -1.57467053610184      2.52901108031209      1.39119997089815
  N          -2.52432376966132      3.85984272244264      1.72783640732109
  N          -2.69501030128394      1.26559658524427      1.72314823623782
  C           2.59117094187604      0.66892290236386     -0.40019312491249
  H           2.05794475003353     -0.20023140982219     -0.80544029232492
  H           3.66464976392177      0.49416866143906     -0.50627819440906
  C          -0.50953155883176      2.43047947325625      2.91192630857103
  H          -1.02405139544957      2.08751263751652      3.81454135702206
  H          -0.20328940329589      3.47551718814149      3.05784890426151
  C          -0.97814830762807      3.14944855575404     -1.58411033089290
  O          -1.60237631137007      3.57404173560032     -2.46476807041625
  H           0.44900750508255      3.82024909202080      0.30534858921343
  C           1.90166543963865      2.59637802549610     -4.11124363298089
  C           3.15409100078345      0.50681066449728     -3.46217566770998
  C           0.68854480479919      0.60573991890452     -3.30956816714866
  H           2.85763534062380      3.10455488308317     -4.20538136347231
  H           1.61471134437466      2.24140533332181     -5.10094046014366
  H           1.14719316663984      3.30884885812287     -3.77390790275815
  H           3.12856282832907     -0.39787784655958     -2.85938357743371
  H           3.08390600711735      0.20851350246576     -4.50848889944207
  H           4.11204111918253      0.99353243997190     -3.32080344571318
  H           0.63360781616244     -0.21209913516345     -2.59500081141772
  H          -0.18661393341423      1.23717161768464     -3.16915684404356
  H           0.65444817346449      0.17932735540644     -4.31212163068285
  C           3.60566540739265      3.50299899159630      0.33094954905119
  C           4.68302344198320      3.02736845769929     -1.84615628741745
  C           2.84401503298362      4.72295219471996     -1.68794139493015
  H           4.08654655680912      2.61515618306342      0.73894751439403
  H           4.25665134753201      4.35496178805437      0.52611920726108
  H           2.66677724214192      3.67438889548884      0.85683333505344
  H           4.61149227730880      3.05374884179735     -2.92974043445600
  H           5.42759318121372      3.76725956172472     -1.55038307577251
  H           5.04786348993464      2.05081165230089     -1.53342335431154
  H           2.82684387937567      4.76550927132224     -2.77276484805439
  H           1.83283559514879      4.89494975889106     -1.31846060395965
  H           3.48396506993430      5.52895225268477     -1.33008813511073
  C          -2.10932472240283     -0.04266034786624      1.93357886957558
  C          -3.69882963408469      1.20853108970694      0.67025616684253
  H          -2.90178496803203     -0.74270172532211      2.20937420966117
  H          -1.61111465472955     -0.41462957309247      1.02758827975284
  H          -1.38330942422487     -0.00324138746029      2.74546816114329
  H          -4.52425355515069      0.57007588576276      0.99234255761206
  H          -4.07910375194377      2.21259373530965      0.48185603653893
  H          -3.28534914036667      0.81701583043563     -0.26807679405643
  C          -3.44979150992279      3.87546027102777      2.83894686469515
  C          -2.67744677990759      4.95274438957992      0.79659061221172
  H          -3.33155233180901      2.96262722262442      3.41843546791724
  H          -3.25532743313218      4.74031088756869      3.48162451081286
  H          -4.48745096238076      3.93628171189951      2.49276380078868
  H          -2.50075615917303      5.90707534171753      1.30285196750561
  H          -1.94225164730215      4.83551185125281     -0.00082209112081
  H          -3.68248794370784      4.97798869673855      0.35880232706472
  C           1.80873104080018     -2.64436118658979      0.55633858944973
  O           3.01703497692888     -2.57613332760740      0.63961914447662
  C           1.13101827639752     -2.73343927246040     -0.76038878854767
  C          -0.24718192447776     -2.59856793322633     -0.92331123519767
  C          -0.80884526443177     -2.68686646682841     -2.18357295383907
  C          -0.01077888340312     -2.91980826499630     -3.29236555598759
  C           1.36055727026424     -3.05486019279528     -3.14253422464469
  C           1.92617619792247     -2.95731419783194     -1.88703445375929
  C           0.93318175534511     -2.63710431946799      1.78393246153093
  H          -0.88547844583203     -2.41208693028979     -0.07387787417950
  H          -1.87553964180429     -2.56995524655722     -2.30302364000934
  H          -0.45765472698282     -2.98994575916332     -4.27275831420733
  H           1.98619822410610     -3.23186760467878     -4.00467469985959
  H           2.99284604022481     -3.05867075036585     -1.74667021708326
  H           1.55742508130639     -2.70745647237530      2.67128443958575
  H           0.22931515945420     -3.46535889785985      1.76222064849551
  H           0.37456384802288     -1.70347450984363      1.82206940181892
