83
Coordinates from ORCA-job A2S E -109.250402493550
  Ru          0.15747503165348      2.31673565634122     -0.19383402749370
  H          -0.13033734527663      0.79649666286726     -0.39369423668673
  N           1.21156876940650      1.74591170486461      1.49291768735969
  C           2.39057709015599      1.10369834305697      1.37766909117155
  C           0.72849654359229      1.96570556539946      2.73177759758810
  C           3.11021418563321      0.67963931967989      2.48639956999271
  C           1.39356612022893      1.54238230954272      3.87303036934477
  C           2.61005280840200      0.89177439845754      3.75929583252832
  H           4.05588906274194      0.17834412379794      2.34258443961007
  H           0.95964855270945      1.73858197225788      4.84204508715126
  H           3.15298803277534      0.56675230915918      4.63323545758868
  P           2.19644200815374      2.02268315519366     -1.19002557721357
  C           2.40965088416075      1.11410180984377     -2.84243669374549
  C           3.46871614899427      3.44714367222916     -1.10578779527408
  P          -1.52889666561515      2.48879741098920      1.27780605841429
  N          -2.69362529246405      3.68972526858705      1.29954468891377
  N          -2.54720372866965      1.18955927611766      1.74234695662766
  C           2.90918122246050      0.81139967574535      0.00666955041401
  H           2.51710333923526     -0.16767311129513     -0.30056361234324
  H           4.00141646742135      0.76023090449884     -0.00738488638470
  C          -0.55313914777896      2.72344026883645      2.84703750491892
  H          -1.09843630021072      2.48859055146179      3.76581145276467
  H          -0.32655902506054      3.79943215030826      2.83715483571766
  C          -0.78947465520907      2.75902449398099     -1.70770199163249
  O          -1.39383160164153      3.01739090558000     -2.66316563207351
  H           0.45881131634068      3.80235741519930      0.13352402141377
  C           2.29462243992613      2.13511344522258     -3.97528080702229
  C           3.69124140613541      0.28869145736996     -2.96657622648613
  C           1.22716593548026      0.15174727804656     -2.96441100924819
  H           3.20346133372599      2.72022104262566     -4.09001745573425
  H           2.10859789800455      1.62307590731209     -4.91921498522311
  H           1.45650735665569      2.80682263642879     -3.78183420885610
  H           3.68741024556051     -0.53943370549906     -2.26235110125838
  H           3.73759068103499     -0.13172551813557     -3.97136541719150
  H           4.58834512468509      0.87691946165552     -2.81292082504246
  H           1.23673274276479     -0.57636643241848     -2.15819259924836
  H           0.28396790155328      0.69413919662405     -2.92880414043051
  H           1.28678431222554     -0.38521567638317     -3.91143071233269
  C           3.60508951828391      3.80497830179361      0.37813736657946
  C           4.86527805730311      3.15232018690270     -1.64884393360255
  C           2.86823289166788      4.65227487437994     -1.83209139327777
  H           4.13466968241427      3.03370956800448      0.93544012705196
  H           4.16331589400200      4.73526581621575      0.48324447456355
  H           2.62208657590789      3.95434347006075      0.82344734641479
  H           4.86249611579957      3.01437069565927     -2.72604067426554
  H           5.51089731654123      4.00362530423972     -1.42974636469420
  H           5.30526872939442      2.27652016347905     -1.17535246524521
  H           2.93269773011367      4.54987171068319     -2.91089077154612
  H           1.81936992608161      4.76237139901694     -1.55678347376208
  H           3.39606541039111      5.56274833903015     -1.54930935596012
  C          -1.85617669886174      0.00766073188434      2.21710188907118
  C          -3.44777356053632      0.84858778721478      0.65029204469969
  H          -2.59679033230564     -0.73885247337969      2.51091204375922
  H          -1.20763234071578     -0.43331143769212      1.44845948178750
  H          -1.24491515597935      0.24410470959109      3.08695822440035
  H          -4.23928819487874      0.19703165442085      1.02630665815610
  H          -3.89101928233972      1.76429277305470      0.25937777875146
  H          -2.92241952771269      0.34066627262605     -0.16806998308629
  C          -3.53452067137418      3.88251556011129      2.46180504189374
  C          -2.61091759967823      4.83818274162814      0.42697583001597
  H          -3.54692415495295      2.96417583229493      3.04525443365937
  H          -3.17961624621839      4.70915065990281      3.08905983276819
  H          -4.55600944863018      4.11143546972046      2.14488597536717
  H          -2.28694454101412      5.73638056695156      0.96568236240535
  H          -1.89343311463402      4.62500735923074     -0.36626649007663
  H          -3.58974234736929      5.03994027676397     -0.01939164841672
  C           0.86647719602182     -2.65778541823954     -0.19098153816763
  O           1.96714080452830     -2.21090389960535     -0.44583169030035
  C           0.37801641635689     -2.73857825572845      1.20749178614736
  C          -0.84551017838898     -3.30691256262219      1.56008401540714
  C          -1.23831343255422     -3.34168518190913      2.88494077055377
  C          -0.42769393610400     -2.80394932618067      3.87214865422766
  C           0.78875287620099     -2.23508361450439      3.53211254073106
  C           1.18956128137864     -2.20967241979801      2.21189142257739
  C          -0.05739822682598     -3.13306076156896     -1.28012327773475
  H          -1.49567156653131     -3.72436756701210      0.80751039408699
  H          -2.18444956505350     -3.78992686526386      3.15124898231919
  H          -0.74410105651208     -2.83162269546279      4.90457322483395
  H           1.42529441814753     -1.81383353602065      4.29621386682914
  H           2.13844607210157     -1.77787726752652      1.93146595856392
  H          -0.35058667149866     -4.16658843263457     -1.11081530380745
  H           0.44471409587317     -3.05317739386208     -2.24102838378598
  H          -0.95064435773111     -2.51085842140011     -1.29361204049166
