83
Coordinates from ORCA-job A3R E -109.214711325900
  Ru          1.05202157698831      3.62945536930157     -0.32843028926595
  H           0.03104052370704      2.10801050029983     -0.44295418367245
  N           1.76060820122773      2.63318092568743      1.37552530099986
  C           2.36539120670524      1.41528968806887      1.18142430040652
  C           1.48946412837272      3.05676910170943      2.61415267493183
  C           2.55076518559713      0.55980946838167      2.30628113108804
  C           1.68497747116869      2.27066059250076      3.73171312964074
  C           2.20568527248989      0.98009256407320      3.55595453715568
  H           2.97871729576233     -0.41710269686332      2.13928697556228
  H           1.45291128745627      2.64680624642494      4.71532660625456
  H           2.34630017662863      0.33741889249232      4.41299936905602
  P           2.76847123161028      2.37127099596163     -1.28690053119331
  C           2.59294694276613      1.59409481895912     -3.01155556682162
  C           4.51406484063589      3.16048353352834     -1.14390924771578
  P          -0.17375266960791      4.76914496653971      1.28749989131004
  N          -0.29072622095062      6.44218131011482      1.15842043938437
  N          -1.67369888960850      4.53225179792290      2.06680015288166
  C           2.73594694981217      1.04052851581337     -0.11367820160517
  H           1.03409491308643      0.15362649342775     -0.35674556315042
  H           3.33836859758198      0.15180786615163     -0.24992903862284
  C           0.97912392554268      4.46129826101771      2.71380356555448
  H           0.55760715281812      4.69325580801097      3.69364410660971
  H           1.81585795833958      5.14565704441469      2.51648657539087
  C           0.41544168505881      4.41804312418950     -1.86236712795366
  O           0.04009237160449      4.92874404772525     -2.83107650914593
  H           2.01778687623177      4.78018768975500     -0.13002489128733
  C           3.29667820905057      0.24309596989744     -3.12596648735091
  C           1.09842326157567      1.37368113857449     -3.26517111305844
  C           3.09164560971757      2.56767465916206     -4.07824734008441
  H           2.84197755554912     -0.48241639297858     -2.45532583938348
  H           3.18830966981361     -0.13047745466220     -4.14410759066038
  H           4.35647204299924      0.30930547066184     -2.90236560648574
  H           0.53869095706043      2.30294248475711     -3.14852904139778
  H           0.94919331458511      1.02271114219566     -4.28607100228249
  H           0.68542660567638      0.62153788655844     -2.59978302614490
  H           2.67232943011994      3.55805075937081     -3.90327649352709
  H           4.17537260829292      2.63397214866240     -4.09642995994079
  H           2.76602989611096      2.23039051969874     -5.06233028051775
  C           4.71316972099659      3.43442677273945      0.34977267737275
  C           5.63996562596015      2.23494756894877     -1.59943559454305
  C           4.56338363644358      4.50050625781384     -1.87856521955551
  H           4.72865121736341      2.50931839494263      0.92352038822161
  H           5.66101073179902      3.94736619807681      0.50966364125845
  H           3.91252584478374      4.06982141365425      0.72868427062234
  H           5.64490728156009      2.09103357037810     -2.67627359246416
  H           6.59965684622814      2.67095126418626     -1.32080649686259
  H           5.55875261731888      1.26550307787291     -1.11005897510967
  H           4.70366539251591      4.37961318435980     -2.94724432793894
  H           3.63576642776877      5.04920927803034     -1.70587679578504
  H           5.39184302407120      5.09824055344759     -1.49971501546912
  C          -1.94056418751252      3.66999951421763      3.19712138896074
  C          -2.85047182558800      4.85264792176007      1.28793933250519
  H          -2.31241504143370      4.26485304427700      4.03994493653887
  H          -2.70716354430288      2.92583544550887      2.95905429436484
  H          -1.04347223549200      3.14172864568821      3.51175693286342
  H          -3.55342421827516      5.42742253682087      1.89762791587855
  H          -2.55100458911910      5.46297175625371      0.43528486664327
  H          -3.36765827341029      3.95726273969466      0.92185985107139
  C          -0.52019580383617      7.23647523289083      2.34894064445065
  C           0.31660746922756      7.19971495799182      0.08791075660714
  H          -0.99606947628288      6.62280202426157      3.11062380075466
  H           0.41303326008834      7.64710730436603      2.75091855862223
  H          -1.18391763625654      8.07121660184549      2.10863175914874
  H           1.24937102113058      7.67765544790704      0.40750749807495
  H           0.53616671459495      6.53542642287342     -0.74718490874705
  H          -0.37337450599267      7.98033195059767     -0.24528357011369
  C          -0.63252911022682      1.17411419108267     -0.35766787250390
  O           0.09779464644041      0.01905833783518     -0.65023268969044
  C          -1.77059191985405      1.34111266657143     -1.33740874451903
  C          -2.29639536214383      2.59918120422547     -1.59481286455029
  C          -3.36834102235374      2.74788815256761     -2.45454843783402
  C          -3.92296937006701      1.63643496149146     -3.06760688613924
  C          -3.40086382949604      0.37956833398684     -2.81584126195049
  C          -2.33148974705940      0.23004806480583     -1.95095279911581
  C          -1.20745200855708      1.09474351266678      1.06056328973710
  H          -1.85142789005180      3.47225221872271     -1.12611695752982
  H          -3.76522938215061      3.73272088740337     -2.65233839813298
  H          -4.75700331441372      1.75204402997429     -3.74405245966217
  H          -3.82745288745819     -0.48942495869774     -3.29502980970482
  H          -1.91276604002598     -0.74398197407014     -1.75107488936247
  H          -0.41424966035527      1.04830602236656      1.80539830256507
  H          -1.80598414399528      0.18854009700681      1.14045657877378
  H          -1.84054250226740      1.95477008348385      1.24829684111760
