83
Coordinates from ORCA-job A3S E -109.210969604540
  Ru          0.84718328207399      3.64557685957301     -0.28927623344975
  H          -0.38589501339260      2.22566188195979     -0.17464306856797
  N           1.45852554237261      2.64271820587348      1.44021180607566
  C           2.06478143158058      1.41926766049073      1.26406519958756
  C           1.08015954313844      3.02165728490950      2.66427886448772
  C           2.25888956766172      0.57595241352730      2.39454902161150
  C           1.27024817321501      2.23720372844511      3.78376883116051
  C           1.86872938506799      0.98087155158552      3.63426084763409
  H           2.72639277758284     -0.38436157478661      2.23728120215954
  H           0.95656919650898      2.58791516531505      4.75358622798045
  H           2.01848876927531      0.34928894973816      4.49751154918499
  P           2.49298542476050      2.29300489894877     -1.23348179440500
  C           2.29552528945761      1.49133166203781     -2.94807232349700
  C           4.27299677630325      3.00673501408792     -1.09672829917596
  P          -0.20233859976951      4.99930311617924      1.22404935094295
  N           0.35894943217227      6.60486188110981      1.27192125824724
  N          -1.90236774785035      4.99196160340706      1.46484279911646
  C           2.43043629838381      1.00218668863585     -0.02057259343285
  H           0.72036617635190      0.25450489878666     -0.40828146851663
  H           3.03491795557592      0.10932780268629     -0.12071795257346
  C           0.47724034456962      4.39266363033583      2.83108811943265
  H          -0.25473756491970      4.36808293728506      3.64064643316243
  H           1.28524749608756      5.08537976442494      3.09564317491523
  C           0.19152106048002      4.40830808473537     -1.82534877773018
  O          -0.25410503861784      4.90976082383955     -2.77094058506641
  H           1.91136166365760      4.71148446514847     -0.18063349812015
  C           2.86282192859063      0.07380551896364     -2.98439292608078
  C           0.79651796819840      1.42603776241473     -3.25698745883331
  C           2.92505598366503      2.36433247983746     -4.03287212944196
  H           2.29843162793043     -0.57946232120916     -2.32284455480727
  H           2.78051252418270     -0.32178219782749     -3.99659686874260
  H           3.90912170563832      0.04610791263193     -2.69525596724533
  H           0.36001564575987      2.42464741923427     -3.24415653710525
  H           0.64801042222856      1.00781921324073     -4.25251039099934
  H           0.26708772549092      0.79280008909747     -2.55162442173306
  H           2.59265353044917      3.39523502443684     -3.91908748186962
  H           4.00982408985403      2.33084994648382     -4.01352443252124
  H           2.60355806222525      2.01112549098232     -5.01293041962886
  C           4.47158213374873      3.32895114959168      0.38804295723411
  C           5.35139938673019      2.00045162566351     -1.49487461943405
  C           4.40948016060247      4.31099526757602     -1.88321330918009
  H           4.44259322474181      2.42678957372951      0.99641072973703
  H           5.44066057422362      3.80439511820386      0.53585177392027
  H           3.69759196212469      4.01298609288886      0.73930957435509
  H           5.35331355872429      1.79307057031534     -2.56099525674161
  H           6.33133200939121      2.40130472584072     -1.23485404050717
  H           5.21893234043404      1.06554001143383     -0.95272766822882
  H           4.57403877105242      4.13903793967060     -2.94127831192362
  H           3.50725581091377      4.91181586148526     -1.75880738594647
  H           5.25642757730958      4.88213301816073     -1.50431334180653
  C          -2.58936066766359      5.57216156194919      2.59932555141334
  C          -2.69770170746938      5.06959241937390      0.25424949978596
  H          -2.89184488714619      6.60941646130191      2.41288477222614
  H          -3.49337766284797      4.98933884615921      2.80382089014550
  H          -1.96044087560926      5.54827632563824      3.48552455707737
  H          -2.96531478149071      6.10197285098321     -0.00110041347088
  H          -2.13045104790214      4.64364705134880     -0.57700424099536
  H          -3.62428216838353      4.50229985248339      0.38450760327960
  C           0.07839996799059      7.48596067212123      2.38862633181675
  C           0.48265368782845      7.33873518369325      0.02812472843895
  H          -0.05402832664206      6.91796507114960      3.30649244789508
  H           0.92373546618229      8.16729872073805      2.52380959780229
  H          -0.81846168800733      8.09510801307734      2.22058593633361
  H           1.32145260538821      8.03479880554810      0.10534088626788
  H           0.68488640314012      6.63530559337682     -0.77997405690553
  H          -0.42071516909628      7.91340710740135     -0.20965015248650
  C          -0.94247997523021      1.21115506914203     -0.04555935121506
  O          -0.23709310017669      0.18829050878537     -0.67468529958947
  C          -1.15382428918131      0.91213368822472      1.42726121328117
  C          -1.72321719012513      1.85168265806208      2.27473448884966
  C          -1.96925437391163      1.54549365644680      3.60009622174287
  C          -1.64640287213395      0.29496653160211      4.09787857448303
  C          -1.08096035751909     -0.64752173284692      3.25830267337204
  C          -0.83922201778295     -0.34333120563192      1.93097612862761
  C          -2.29513651746611      1.34700030844362     -0.74835176126996
  H          -1.96594815445774      2.83178895588686      1.89482376050584
  H          -2.41449211421933      2.28767253924031      4.24795421719933
  H          -1.83533691498828      0.05677064130614      5.13448208789378
  H          -0.82694760756837     -1.62718711194096      3.63586052672644
  H          -0.41249335139379     -1.08745526963883      1.27502671457306
  H          -2.80203488168022      0.38497109116836     -0.70826216039196
  H          -2.14738266070789      1.61968426469837     -1.79077079283109
  H          -2.91045311566610      2.09646417958209     -0.26040678421466
