83
Coordinates from ORCA-job TSA2R_3R E -109.214086056530
  Ru         -0.32971279011145      0.62507794034998     -0.01913321605428
  H           0.03030405116958     -1.18541589634219     -0.14837680604816
  N           0.94027315029972      0.37640101315018      1.63309448932496
  C           2.22991544574022     -0.02292803102739      1.37492359762131
  C           0.49110881860472      0.41475032359433      2.89220960395551
  C           3.01649319790960     -0.52635741069402      2.45202423214242
  C           1.23349698464363     -0.03749792764586      3.96423237842050
  C           2.52069327158231     -0.53950178340676      3.72107745613938
  H           4.01436880696192     -0.87798342258744      2.23332811894070
  H           0.83565446404257      0.00888492957617      4.96551612063752
  H           3.11121115052189     -0.92069354447251      4.54157608576271
  P           1.72835414659016      0.99782202355164     -1.05048634678488
  C           2.07895707251724      0.36410393696884     -2.80571067399853
  C           2.37903753118239      2.79802345396547     -0.90104942973507
  P          -1.94372627351055      0.54606140340721      1.64524623919412
  N          -3.05057980572401      1.81196422330006      1.64467679070667
  N          -2.89949705010937     -0.67318617640168      2.38081931310476
  C           2.70889928094040      0.02726803374575      0.06260948748752
  H           2.13583715808421     -1.82847766806694     -0.13913744826105
  H           3.75930146562635     -0.15735972373828     -0.12108138818855
  C          -0.86573237335293      1.02247038795982      3.07743149178891
  H          -1.28711360216702      0.80835813862987      4.06132448337019
  H          -0.77316233555467      2.11084960929583      2.96151058386245
  C          -1.38910620858995      0.75036139487999     -1.51561601340395
  O          -2.05211505134382      0.82877188393589     -2.46208853616246
  H          -0.46821903247669      2.11217643410761      0.23139949498713
  C           3.54025761953715     -0.02028723637803     -3.03014103786232
  C           1.22512068796600     -0.89074911412817     -3.01173905463174
  C           1.61792666680390      1.40189234595545     -3.82817465474971
  H           3.82807222380897     -0.83351887155124     -2.36794078146832
  H           3.66271566711688     -0.36651706405825     -4.05613252651917
  H           4.21644338701074      0.81299576508406     -2.87466338912808
  H           0.17057480217022     -0.68495473227676     -2.81961957667412
  H           1.31317462741850     -1.22916537370856     -4.04388535533371
  H           1.55276250052265     -1.70569337736315     -2.37297692860956
  H           0.62170959581332      1.76160635459814     -3.56967837633009
  H           2.29975231728433      2.24529199798096     -3.88795544887659
  H           1.56812675650690      0.94621809619785     -4.81697760520036
  C           2.41017880402344      3.08895853512863      0.60213859124902
  C           3.79500922356083      2.98319142702287     -1.44160645004285
  C           1.40620606560688      3.78062424588011     -1.55237476591679
  H           3.12789264147188      2.44913121859078      1.11334754155929
  H           2.69799166416095      4.12578001314069      0.77420770176078
  H           1.42394824261550      2.93032481469896      1.03963720890362
  H           3.82910227259681      2.92782150056383     -2.52733294865538
  H           4.16647872665199      3.96726783730815     -1.14952495917183
  H           4.46666818791356      2.23425975225578     -1.02165524722201
  H           1.50782539542712      3.80550454543824     -2.63203153245645
  H           0.38059927400195      3.50328405139551     -1.30303540209515
  H           1.59235306880165      4.78606961867869     -1.17644752537906
  C          -2.50517332269439     -1.57318910282917      3.44146382281904
  C          -3.98406786558033     -1.17866418350365      1.56748462154329
  H          -3.18918326874408     -1.46241503681374      4.29071593142959
  H          -2.54911757390517     -2.61859850606022      3.11939025704320
  H          -1.49263095317369     -1.36383571902844      3.77846622996853
  H          -4.89389867988749     -1.25956282193912      2.16990685023808
  H          -4.16849259688391     -0.48346109218756      0.74648825142936
  H          -3.76601218135443     -2.16694341129631      1.14407006109719
  C          -3.94087336056170      2.00279714721568      2.77169998284759
  C          -3.51024840121170      2.47244338121254      0.44410016754892
  H          -3.56830648803004      1.45609631646751      3.63385423207459
  H          -3.99312373485042      3.06601349331765      3.02269395525251
  H          -4.95631655416353      1.65390592366835      2.54962574428190
  H          -3.58163933734408      3.54768840737167      0.62602700346992
  H          -2.78774693824301      2.30473007256492     -0.35386451897386
  H          -4.49591274372147      2.11436926260294      0.12621680219394
  C           0.24082598383594     -2.31254977305824     -0.10309170323530
  O           1.57456775948421     -2.59114479195461     -0.41701443581141
  C          -0.67889631966266     -2.97998404168172     -1.09811782242965
  C          -1.95072782248326     -2.47391553839457     -1.32512692732433
  C          -2.80555178370047     -3.09994951958131     -2.21218190773414
  C          -2.39127701271320     -4.23671227281199     -2.88555284836880
  C          -1.12500758578417     -4.74834017987033     -2.65961222304631
  C          -0.27179318776047     -4.12547006164605     -1.76669420220895
  C          -0.09137951477035     -2.81796849459709      1.30497673701601
  H          -2.26667167984422     -1.57110202045586     -0.81107920133284
  H          -3.78907553077410     -2.68974130892696     -2.39062399022009
  H          -3.05631936966813     -4.72367574956507     -3.58427062815828
  H          -0.79437371609368     -5.62718578486151     -3.18952354589768
  H           0.71926420436109     -4.51219282506347     -1.58608014907224
  H           0.52178678719465     -2.31945198821296      2.05502381228710
  H           0.11290598163229     -3.88646820222494      1.34850344400475
  H          -1.14136508517252     -2.64880147434657      1.51636861130905
