83
Coordinates from ORCA-job TSA2S_3S E -109.205045241650
  Ru         -0.56165285664688      0.53992227613376     -0.56312569108503
  H          -0.41255319741301     -1.30385548459040     -0.55228368644804
  N           0.61721481228314      0.23136300637093      1.13717161399702
  C           1.89208673672226     -0.19826898255468      0.93762895465899
  C           0.11601749739590      0.26546903895390      2.37238861404640
  C           2.68727435400215     -0.57081017868621      2.03740795744279
  C           0.86199924025207     -0.09382721064466      3.48413475924091
  C           2.17423431754692     -0.51748056856290      3.30812908834488
  H           3.69648300641026     -0.90736270988226      1.85738790484792
  H           0.42195570247469     -0.04789347551567      4.46734966599553
  H           2.77403228610608     -0.80146732024544      4.15956468757047
  P           1.52824297906591      0.76103450192262     -1.56157816846219
  C           1.90516604012975      0.09854187683913     -3.30018653179348
  C           2.40077276774321      2.45000066300095     -1.33487786964981
  P          -2.23904730424527      0.67990360013235      0.97619380179380
  N          -3.02483692923631      2.18931171244679      1.07452981688122
  N          -3.39403458100798     -0.55692886226897      1.23226992111821
  C           2.37853440386620     -0.34515054399654     -0.41274930240081
  H           1.88057108255578     -1.56285517078957     -0.79294194198758
  H           3.46022266682964     -0.42587965696048     -0.50156358406004
  C          -1.29298074078353      0.75432309979903      2.56752951001815
  H          -1.75203107039251      0.19719779452332      3.38650084741155
  H          -1.25146779295707      1.81718490320259      2.83509768128967
  C          -1.60281747229302      0.68946850920233     -2.06942452085421
  O          -2.29809425380140      0.79016770850223     -2.99056281030399
  H          -0.54785548377211      2.04954140713146     -0.35788253610441
  C           3.28386809677462     -0.55337980066710     -3.38805112349922
  C           0.85018112056201     -0.96763839395904     -3.60557378583368
  C           1.74162353941643      1.20174360810350     -4.34593136546642
  H           3.31629272566645     -1.44616072208204     -2.76877551286591
  H           3.47059345516051     -0.85314414760107     -4.41897242002215
  H           4.08098470357867      0.11846837590683     -3.08492088527754
  H          -0.14995765216217     -0.53538918201698     -3.59893127990506
  H           1.03005943478269     -1.38717195912231     -4.59491823898635
  H           0.90229440294924     -1.78080988212444     -2.88431763435967
  H           0.80138234681590      1.72894796238694     -4.18662393937815
  H           2.56154471499282      1.91393141081733     -4.33135131296615
  H           1.71327659032328      0.75448359856492     -5.33954734049164
  C           2.37745275237638      2.75377679011576      0.16648108519532
  C           3.86011834971732      2.45288508750378     -1.78607025658325
  C           1.60291963752428      3.54407024625414     -2.04593714741807
  H           2.99327671671447      2.05293646805869      0.72745815991704
  H           2.76689659941789      3.75599219344695      0.34339055796859
  H           1.35719449775129      2.71475244080601      0.54991569560618
  H           3.95921578263494      2.34739956604114     -2.86218251508659
  H           4.31894842585150      3.40077002259832     -1.50400159776940
  H           4.41913119092244      1.65569557286938     -1.29901504665884
  H           1.78613237354811      3.55634375077304     -3.11473105722308
  H           0.53662375259007      3.39134528021045     -1.87337995579165
  H           1.87832966288403      4.52066563694997     -1.64946527637087
  C          -4.21822601748802     -0.74840152357808      2.40593743436180
  C          -4.03379434058717     -1.05519882368168      0.02970572288508
  H          -5.20736588542832     -0.28872703961177      2.29464428495678
  H          -4.36256960784505     -1.82178025010747      2.56841917659538
  H          -3.74088045423616     -0.33259643087049      3.28946004570389
  H          -4.98915296460258     -0.55466617040286     -0.16907266476083
  H          -3.37070435579585     -0.89116292433193     -0.82375869287724
  H          -4.22824622210512     -2.12724275478036      0.13062942374339
  C          -3.89217188725649      2.50660252065048      2.19246062280114
  C          -3.47158556777652      2.82974611687842     -0.14642776585254
  H          -3.56056473797172      1.99690380417781      3.09418168296259
  H          -3.85619799737603      3.58489992619078      2.37299732004112
  H          -4.93726865281594      2.23480802042403      1.99863426589620
  H          -3.43804024419258      3.91370874534008     -0.01232271290234
  H          -2.79553232927041      2.55641139374489     -0.95629452859608
  H          -4.49598939903433      2.54799060775996     -0.41818034839830
  C           0.01120045636441     -2.45893540221288     -0.46444049994866
  O           1.18111558021710     -2.58078496240880     -1.10745563603099
  C           0.11235332054362     -2.80434438669250      1.01388589968241
  C          -0.93432212770904     -2.58846260240392      1.89824477591307
  C          -0.82977743667752     -2.97929717623546      3.22019556288697
  C           0.32540691871379     -3.58980447240161      3.67788984175029
  C           1.37322315745657     -3.81023146818572      2.80172968824234
  C           1.26574822345783     -3.42330000956649      1.47884509597580
  C          -1.07631525660807     -3.32277978000499     -1.11948229780611
  H          -1.83255930960105     -2.10338895065258      1.54954488343388
  H          -1.65506055254709     -2.80723361777137      3.89796500372669
  H           0.40658111169239     -3.89360941667944      4.71175963981461
  H           2.27806325082791     -4.28843026613852      3.14847061892878
  H           2.07314070570000     -3.60189088226489      0.78376901227352
  H          -0.74878046676770     -4.36064392493038     -1.08859938063894
  H          -1.20484527738862     -3.03042029856359     -2.15917901117244
  H          -2.02270106552038     -3.22990145798643     -0.59481245183266
