18
Coordinates from ORCA-job NEB E -38.460713270750
  C           0.64698766053023     -0.24547607117028     -0.95156735926801
  C          -0.28635318836252      0.66599143396278     -1.44859548283008
  C           0.26027764560664     -1.71156817218645     -0.88891092448707
  H           1.67757718610143     -0.14287981350935     -1.27899119787408
  Br          0.47747349678440      2.33762664521420     -2.14636774727033
  C           0.64645784695845      0.40507931832395      0.92644208436058
  C          -0.71372306775534      0.40731398767883      1.25741146501864
  C          -1.57890760605335      1.26661624787766      0.53264653794019
  O          -1.47841518597464      0.73145376873595     -1.03355991833616
  C           1.52346910206781     -0.45968731785475      1.64378852031099
  H           1.11901438255981      1.35455712447286      0.67872525406248
  H          -1.13052888617044     -0.45525792542809      1.75521459449104
  H          -1.25333476804855      2.29418187474865      0.38397834712118
  H          -2.63910411424355      1.17821139309123      0.72983900114840
  F           1.25831641724714     -2.44369321114145     -0.35194019177295
  F          -0.84132498735622     -1.95826729068532     -0.15222152156141
  H           0.07287540009690     -2.10817793435012     -1.90281376459784
  N           2.23924266601180     -1.11602405778031      2.24692230354442
