18
Coordinates from ORCA-job NEB_product E -38.503337967550
  C           2.33648998949406      0.63078860985801      1.83084903130317
  C           1.51323990232690      1.64293789726446      1.08404548934732
  C           2.58241081651529     -0.64800986769134      1.02485417240322
  H           3.31632754035563      1.09791597444755      2.00618488212333
  Br         -0.09901033769968      0.91097268708563      0.24447774058558
  C           1.66983318861391      0.35773722955399      3.21318678930137
  C           0.57314959081842     -0.67598355170979      3.18616415913887
  C          -0.68788154797861     -0.39890952133024      3.45795898064608
  O           1.71009321887672      2.80359866274159      1.01124225489122
  C           2.68873665335865     -0.07918419392954      4.15067948934133
  H           1.27105270693626      1.30910585296441      3.59076770470603
  H           0.89178094258489     -1.68641848011185      2.97337422847233
  H          -1.02056174569307      0.59963006264952      3.69051736155026
  H          -1.44392568910392     -1.16349361174968      3.44931211000484
  F           3.29671640478746     -0.34407125702593     -0.08257050042180
  F           3.32690568764142     -1.51793242680580      1.73609384958481
  H           1.66420111247980     -1.16305672274906      0.70488761918658
  N           3.47434156568588     -0.42322734346194      4.90297463783545
