23
Coordinates from ORCA-job P E -28.315075366170
  C          -1.45841747069669      0.38234138077380     -2.41980163966859
  C          -0.42668968058591     -1.89363778846485     -1.21729769745424
  C          -1.83940805330012     -1.90700039043255     -1.70660727078848
  C          -2.32499359610315     -0.83583036575798     -2.31280085278732
  C          -0.84636242564768      0.63198504578022     -1.03375475385387
  C          -0.06519286777897     -0.57429521904456     -0.49321375339015
  H          -2.41554320328900     -2.80999852807088     -1.57347794840560
  H          -3.33163982228834     -0.79318986346243     -2.69889006223905
  C          -2.23135151349324      1.60211235649277     -2.90755172526488
  H          -0.23448781188776     -2.74680923071404     -0.56563206315901
  H          -0.63768046118791      0.17657800929863     -3.11820437067655
  H           0.24262157585616     -1.96887323304977     -2.08172572636169
  H          -1.65288566859241      0.88178811741070     -0.34252910975335
  H          -0.28393682971476     -0.69384273775637      0.58160951624511
  H          -0.15583570334741      1.47467204309809     -1.07579044702526
  O           1.31278868776668     -0.26689025702516     -0.63633094160857
  H          -2.65302070185886      1.41513925858584     -3.89274536372035
  H          -1.57757499248895      2.46887952485960     -2.97208232912683
  H          -3.04412347534235      1.83536811880152     -2.22247562054108
  C           2.18294201401317     -1.12688747661366      0.04948606606913
  H           3.17680753887007     -0.69099626617239     -0.03780752466018
  H           2.19530799516871     -2.13455501010702     -0.38137994428002
  H           1.91116646592874     -1.20098748842951      1.11057356245082
