23
Coordinates from ORCA-job R E -28.230200565450
  C          -1.13833755670013     -0.23722405776463     -2.85709609603086
  C          -0.71644745774985     -3.20426169152052     -2.34143502484665
  C          -1.65200653666751     -2.42937337274370     -1.79980630530274
  C          -1.86936550321648     -1.01754028243830     -2.06198014524715
  C          -1.05778062914944      1.73390398089439      0.56637077450536
  C          -0.32153453430639      0.65579947655495      0.35415992222750
  H          -2.33569804951602     -2.86684423911309     -1.08198774916358
  H          -2.70741217654787     -0.57569575053302     -1.53687434143367
  C          -1.38915443526498      1.21470432204302     -3.06104374432671
  H          -0.62735710362128     -4.24453830451440     -2.08108816796064
  H          -0.28812532789946     -0.63722385103073     -3.39433454340379
  H          -0.01161230306615     -2.83646326516711     -3.06783103929019
  H          -1.94742414128609      1.68170795969306      1.16437295764919
  H          -0.58460165867712     -0.30993468058239      0.77290912271928
  H          -0.78765414933176      2.68556295638629      0.14782960736767
  O           0.80462483313349      0.68422236033101     -0.40487619334055
  H          -2.30755789916907      1.52726539585544     -2.57013765274765
  H          -1.45274429583907      1.44667434362638     -4.12385106411915
  H          -0.56157504060586      1.78770074337694     -2.64387124135302
  C           1.51722826322977     -0.52615688125963     -0.49115641711986
  H           1.93436993653219     -0.81196329153031      0.48101381132125
  H           2.33102862001696     -0.35272037217000     -1.19234718893804
  H           0.88232714570213     -1.33653149839362     -0.86264928116601
