20
Coordinates from ORCA-job NEB_reactant E -36.914019485650
  C           1.82199553919977     -0.16705683926428     -0.06140136115149
  C           1.50861494613180     -1.46780181250364     -0.30141370526055
  N           1.66853483612895      0.95387399600349     -0.91129977119530
  H           2.26371945529799      0.08507582648484      0.89205598937890
  C           1.66508424388509     -2.32168015335343      0.84572038560878
  C           3.22513748793075     -2.13325599422907     -4.07404152341606
  C           2.62980427436055     -1.43104722208545     -3.12367094553168
  C           1.20878997189973     -1.64821028507028     -2.70057329434118
  O           1.11908371296179     -2.14909964051756     -1.36188714525532
  C           4.62727094122736     -1.92281222278762     -4.52622390734754
  H           2.67808117651489     -2.91258956674057     -4.58904103016478
  H           3.17401912977914     -0.65035784026427     -2.60882883952475
  H           0.74229618199285     -2.43361702011634     -3.29821914360107
  H           0.63596549521282     -0.71695884393838     -2.79762423791601
  O           2.43750722287697      1.87798008646455     -0.73946979977851
  O           0.75913363610590      0.95326334953570     -1.72439283194282
  N           1.78644258283893     -2.98827536888286      1.76624779159210
  H           5.10915988391980     -1.12819691519145     -3.96294319246214
  H           4.64100456386648     -1.66433089072303     -5.58435294922304
  H           5.19945471786845     -2.84200264282036     -4.40614048846752
