20
Coordinates from ORCA-job NEB_product E -36.911904737180
  C           2.87829845636014     -0.79019219030367     -1.16091793536885
  C           1.57224731643486     -1.09453250483182     -0.43353753966959
  N           3.00964831012947      0.67370073878510     -1.38023250521476
  H           3.72660689036663     -1.09136649134128     -0.53309772819685
  C           1.46895321562856     -2.51583205488760     -0.12972371458955
  C           2.91246171784370     -1.57587915612796     -2.50184780441337
  C           1.61061483978863     -1.42045684202357     -3.24045519015054
  C           0.76362483182252     -2.41286571342634     -3.43703981769410
  O           0.73452030180687     -0.29619885392846     -0.13284043490419
  C           4.09252115118979     -1.11908087698197     -3.35975624392914
  H           3.04780481941412     -2.63154096146310     -2.23979675087142
  H           1.39773742592090     -0.42645405921046     -3.60693782541104
  H           0.95676366565063     -3.41129025316195     -3.07744981741252
  H          -0.15884686740137     -2.26907350342651     -3.97145367895570
  O           3.96381949510461      1.19938573133460     -0.86193722380297
  O           2.17499268335711      1.22017782384309     -2.04964133268369
  N           1.39487748202107     -3.63145710197567      0.11004276705879
  H           5.02491113315258     -1.17558779095819     -2.80187644850556
  H           3.95305658710065     -0.09790550631781     -3.70770190785082
  H           4.17228654430853     -1.76185043359643     -4.23249886743413
