30
Coordinates from ORCA-job P E -37.592573577230
  C          -1.60602919139243     -0.10051442991939     -2.29753274138181
  C          -0.14475005826569     -1.29479754961333      0.03116775872137
  C          -1.58901778650906     -1.56173223957357     -0.26734057758348
  C          -2.23047817111787     -1.03501665326708     -1.29625197140115
  C          -0.24329281468223      0.40938606006245     -1.80561864596110
  C           0.57199454823093     -0.69857455570348     -1.16932606160322
  H          -2.09381677092580     -2.23094750463790      0.41545042707815
  H          -3.26581559703198     -1.28667375863777     -1.47900811241130
  N          -2.44483855765972      1.04067355451534     -2.65690652712576
  H          -0.06953657059198     -0.59010447606173      0.86880717101270
  H          -1.43634631667531     -0.68342613914622     -3.21008318324452
  H           0.34449835736726     -2.22031077704398      0.34747206577094
  H          -0.39569176933688      1.18806137683019     -1.05475529153460
  H           1.56921398193374     -0.34630946518422     -0.89475894970668
  H           0.29336910608213      0.85719583947673     -2.64377522217855
  Br          0.91620814967026     -2.11799926406811     -2.49736518759029
  C          -3.23602466968257      0.82580822769047     -3.87010649568103
  C          -4.32252918614774      1.88414782075686     -4.05335575097469
  C          -2.30577131847859      0.88556200484298     -5.08663957505162
  C          -3.16235544181320      1.58779780453686     -1.52286631242759
  H          -3.72953573508483     -0.16485980086706     -3.84325205663118
  H          -3.88324955282824      2.87828930629046     -4.05914185629723
  H          -5.07722947758920      1.83230099868067     -3.27400075558572
  H          -4.81659462445177      1.72157441108408     -5.00839425442754
  H          -1.80075481872597      1.84776435432647     -5.10570919137645
  H          -2.88276490779188      0.77179861838980     -6.00079068101152
  H          -1.55155060384502      0.10395659699772     -5.06927850363264
  H          -2.51272177257759      1.56236664376030     -0.64980169782808
  H          -4.08230423607654      1.04101854195271     -1.27177779526208
  H          -3.41701419400220      2.62816445352976     -1.71892002467333
