30
Coordinates from ORCA-job R E -37.516126995520
  C          -1.02028211510481     -0.21727170139566     -2.82634135659917
  C           0.75698029168270     -2.22979606130976     -1.44751992498561
  C          -0.54778262421926     -2.35461609356509     -1.69618299172647
  C          -1.43643638979142     -1.36642394361121     -2.25495018933540
  C          -2.58448517683077      0.37217483798003      0.70697518794540
  C          -1.33108781401834      0.50439976863487      0.32858072204016
  H          -1.02696373813563     -3.29224237506464     -1.43742518105483
  H          -2.48831006218110     -1.60540195038107     -2.19669285325894
  N          -1.76865607946043      0.80897908827975     -3.30465073623325
  H           1.32683408544868     -3.04263468803072     -1.03173940619370
  H           0.04406164851481     -0.05038381676502     -2.92373871539625
  H           1.30690931285748     -1.32764522315568     -1.65642444512887
  H          -2.95007328849491     -0.58054496016441      1.04973050946012
  H          -0.60297725603772     -0.28993183777591      0.32617274175478
  H          -3.28600857773309      1.18915103083591      0.68780028930269
  Br         -0.62855521669857      2.14647042148900     -0.28352638509355
  C          -3.21174846384435      0.82607331530525     -3.16888464731712
  C          -3.73725597658585      2.23562878171668     -2.89704846893406
  C          -3.89292303368942      0.21371764193982     -4.39809812194432
  C          -1.14175026721459      1.85582037744184     -4.07167927115519
  H          -3.44979343821484      0.21005701882765     -2.29494204725947
  H          -3.64384698195910      2.86995544149792     -3.77421335198216
  H          -3.19293630494369      2.69279246764723     -2.07467389861238
  H          -4.78917883084378      2.18136095298864     -2.62790969090062
  H          -3.70736088776087      0.81983935508096     -5.28174645461700
  H          -4.96677327329952      0.15360196986112     -4.24204884864605
  H          -3.50785336852605     -0.78715467763820     -4.57757214624413
  H          -0.11479443042746      1.57923723433788     -4.29896359723291
  H          -1.12637885353284      2.79894174938444     -3.51766336623772
  H          -1.66841288895525      2.01051587560838     -5.01593335441394
