30
Coordinates from ORCA-job TS E -37.500568399220
  C           0.68990104506715     -0.34632272918616     -0.23465349433620
  C           2.29619748463578     -1.98099671291548      1.50940358321548
  C           1.19356607449977     -2.45768930282349      0.85747963552895
  C           0.39846198961975     -1.66884524813817      0.01529476251256
  C           0.46768483458346      0.25251637948645      2.04698328184144
  C           1.36039786389082     -0.46045260777229      2.78260466588029
  H           0.79404253837928     -3.42148857959238      1.14556226767652
  H          -0.53551438286348     -2.09320982635628     -0.32227576464123
  N          -0.06716838444010      0.53028092438920     -0.94276831535809
  H           2.81921835936889     -2.61627570203472      2.20733838532354
  H           1.70859500249588     -0.01564577909489     -0.10114674090312
  H           2.90169359971750     -1.20762587604031      1.07014956189758
  H          -0.55821352538969     -0.06402562592532      2.00152282016187
  H           1.06508439062821     -1.24394532960786      3.45920450654465
  H           0.69827146328732      1.24296285275819      1.70013295697545
  Br          2.97288997622759      0.40277924718045      3.36329062910423
  C          -1.49751250373718      0.35019114743673     -1.12093611186428
  C          -2.30030008266357      1.55067969743017     -0.61404100948855
  C          -1.82369148849308      0.04852087462484     -2.58619431061556
  C           0.49523641280433      1.81467791585268     -1.28033064570983
  H          -1.78565626352210     -0.51529621014529     -0.51817520334383
  H          -2.14616518550572      2.42669428589783     -1.23818653311606
  H          -2.01928536280366      1.79214121327722      0.40844440806270
  H          -3.35939512656591      1.30647976556801     -0.62854479372384
  H          -1.59338591750044      0.90162422132802     -3.21966831146953
  H          -2.88023977192204     -0.18170736970507     -2.69399027779718
  H          -1.24283955597516     -0.80390673934873     -2.92954581095690
  H           1.57029897762597      1.71868573940539     -1.42258989602041
  H           0.31586143423229      2.56521156536920     -0.50169731172497
  H           0.06196610431816      2.17398780868205     -2.21266693365565
