22
Coordinates from ORCA-job NEB E -49.644213896080
  C           0.64621386536882     -0.62358983275209     -0.41833981981901
  C          -0.40784951873819     -0.28808949827611     -1.28014297633014
  C           0.64371010111078     -1.93586258530096      0.32794415796611
  H           1.64882529282448     -0.41152110690907     -0.77889901843145
  C          -0.01981446567071      0.64473988614625     -2.43852472501266
  C           0.38435089914263      0.77633381078885      1.06176902142114
  C          -0.99617873956400      0.58999647291940      1.30777240956422
  C          -1.95139195935000      0.90795022637844      0.36501943482713
  O          -1.62229585730888     -0.37634010768078     -0.96274360953113
  N           1.28479207195269      0.51246580864109      2.05239653586819
  H           0.67749697424830      1.60136044306308      0.42207471497189
  H          -1.26993733138843     -0.06658359964155      2.12066569107374
  H          -1.79108583965480      1.73482217352311     -0.31114759794658
  H          -2.98400445744618      0.67701419505068      0.56773254888588
  F           1.80273481022259     -2.06524279091425      1.03249186619410
  F          -0.34283706710946     -2.08794133532385      1.23295450235942
  H           0.58903312037197     -2.79173373363890     -0.36518872483889
  F          -1.03500812451462      0.90703107345799     -3.25546071114435
  F           0.44460483663228      1.84006761324015     -1.99991957986830
  F           0.97342203241993      0.12405400202646     -3.18146919747960
  H           2.26384835427761      0.58218557453652      1.82727942269147
  H           1.06137100217320     -0.25111668933446      2.67373565457882
