22
Coordinates from ORCA-job NEB_product E -49.658136534500
  C           2.29472837440341      1.08777464416302      1.22568776699707
  C           1.37758143622917      1.42085536175602      0.08653903653202
  C           2.10449497671639     -0.37156004390107      1.66059481806635
  H           3.34255057637005      1.20690916727169      0.93368127234099
  C           2.04174430661672      2.35657821263350     -0.97471986620939
  C           2.04957788567327      2.13857503600386      2.38084258324081
  C           0.82267546771128      1.79481319835218      3.18034817267851
  C          -0.34996783853081      2.37232693664383      3.00061492128165
  O           0.24532941781388      1.06736736230459     -0.05481553438097
  N           3.27723465481653      2.22657359642662      3.13960670968183
  H           1.90124495382533      3.11164192666941      1.89795399099729
  H           0.95930784937492      1.03944485771489      3.94235293602262
  H          -0.50475631920799      3.12485111238249      2.24472276887952
  H          -1.20576859031627      2.10895989134966      3.59652299166820
  F           2.87654584541229     -0.65310585062660      2.73758105838586
  F           0.84207198651019     -0.66366376733416      2.02126299522020
  H           2.39178899587853     -1.06905263379334      0.85675486654323
  F           1.21936828029294      2.63633774241766     -1.97890877722531
  F           2.44452736294165      3.51980964161458     -0.44453785714047
  F           3.13296472633036      1.76837080116098     -1.49271802459893
  H           3.41766144730053      1.40328154727776      3.71422689950916
  H           3.27599420383765      3.04361125951242      3.73590627150977
