19
Coordinates from ORCA-job NEB E -46.398124956420
  C          -0.31191994120776      1.91335248447538     -0.69237743731148
  C           0.14893766002562      0.85219538629581     -1.36106578146712
  C           0.27781713919128      2.58818644347623      0.48324941212398
  H          -1.21063211775642      2.38010441951767     -1.06817542371344
  I          -0.86712466033265      0.33875419298247     -3.16759646818624
  C          -0.60196227904648     -1.94699620915649     -0.09526784987202
  C           0.34101445534743     -1.37134166184264      0.62803180654200
  C           1.47951091527232     -0.57598373986627      0.06343580661193
  O           1.19082750378192      0.04529965813878     -1.18778817247761
  N          -1.69428356050872     -2.67882195384009      0.52353592781707
  H          -0.65050869102985     -1.92326454209640     -1.17490671639584
  H           0.33277840435619     -1.45208000912343      1.70612720752683
  H           2.31678647539807     -1.24240215411346     -0.17073634148765
  H           1.82729480148588      0.14925024270391      0.80364916814927
  Br         -0.46680194343417      4.38923849074333      0.65947889718935
  Br         -0.13677958614914      1.64037416942940      2.19934010254453
  Br          2.23317074045321      2.79082473911778      0.35195008064372
  O          -2.66854070948238     -2.03357529363038      0.82071048060112
  O          -1.53958460636434     -3.86311466321158      0.67840530116160
