19
Coordinates from ORCA-job NEB_reactant E -46.415340442270
  C           2.01317623253469     -0.10628740308724     -0.60853293913804
  C           2.10592004676673     -1.39386245216535     -0.96105657172783
  C           0.69191955591124      0.54843413555858     -0.51618252111528
  H           2.89070016923420      0.48224783297620     -0.40168885199584
  I           4.02000718981514     -2.30231873145562     -1.07038479874567
  C           1.81425779537784     -5.20791237665966      0.29125324864106
  C           1.18032291430130     -4.06910761064931      0.04926147019156
  C           0.98150133777260     -3.48359889368819     -1.31036461293365
  O           1.01224511638103     -2.07175046272379     -1.29551773655282
  N           1.94387055439824     -5.71336882866323      1.63346452507280
  H           2.26851625073303     -5.84260107095512     -0.45450022020948
  H           0.76008326096058     -3.50778059909624      0.87737209445439
  H          -0.02780550456088     -3.72295014017110     -1.66449932774106
  H           1.71022397829226     -3.87912053769719     -2.02905654373082
  Br          0.85075480853260      2.37239819929819      0.13266067503562
  Br         -0.21505379487426      0.59923608369974     -2.27685279382573
  Br         -0.51501032068524     -0.42553555086580      0.70367648010893
  O           1.50157892698622     -5.04531667881295      2.53907349100656
  O           2.49639148212267     -6.78270491484191      1.75067493320530
