19
Coordinates from ORCA-job NEB E -36.421399087770
  C          -0.24486464114476     -1.15173985141791     -0.55618850955096
  C          -1.28594996603651     -0.28290796253875     -0.94451860161646
  Cl         -0.61574145368683     -2.39697731649985      0.59740835030268
  H           0.38598138139729     -1.52855105940561     -1.35827595434840
  N          -1.08752483953663      0.42010231403234     -2.18708165312675
  C           0.87149504692245      0.06868475484876      0.38114017471438
  C          -0.04331015614552      0.61520037041742      1.28589406639686
  C          -1.18361384466533      1.34640663207003      0.78424781658704
  O          -2.00260573046305      0.33178200026146     -0.04035928174189
  C           2.03792491604105     -0.72964466191177      0.89701127498497
  H           1.12926743425686      0.67918378822621     -0.48148850041702
  H          -0.11514883982638      0.17736586527319      2.27138711269273
  H          -0.95903658305051      2.14045869923132      0.06958338613332
  H          -1.88698106711250      1.68090912638668      1.53996492990147
  O          -1.66123941535302      1.48182906596547     -2.32329389494209
  O          -0.35560328141386     -0.09674485325827     -3.01606844385688
  H           1.73632487104785     -1.38859119101155      1.70611805594463
  H           2.79655489628673     -0.04389673242032      1.27093149081679
  H           2.48407127248266     -1.32286898824885      0.10358818112558
