19
Coordinates from ORCA-job NEB_reactant E -36.441416755040
  C           1.28618394864781     -0.08258757337751     -0.68300062085659
  C           1.40329786618957      1.14213263488502     -0.13803945000284
  Cl          1.74364215902896     -1.48726185181683      0.14640788640009
  H           0.86336784131714     -0.21438592430492     -1.66675970663934
  N           0.94242521950692      2.26918099800461     -0.93696158790811
  C           4.87142964234243      2.14719870024946      2.47665438814912
  C           3.55254170898928      2.06627706324621      2.53245063705936
  C           2.63883275208586      2.48667248342790      1.42568790940626
  O           1.79485767090989      1.35731857134948      1.11572820044956
  C           5.79075015359066      1.74691601399185      3.57848035968607
  H           5.35182669185991      2.54374094108738      1.59059976065479
  H           3.05382315732115      1.66721198561643      3.40356396575034
  H           3.21237909665102      2.79027347782016      0.54486596983643
  H           2.00168127891880      3.31996498399834      1.74383054538031
  O           0.73982702852283      3.31427163036743     -0.35847814496770
  O           0.78620620060397      2.08377438364324     -2.12551013229220
  H           5.23781302243758      1.35160375088259      4.42608495839711
  H           6.37739340902149      2.60421976013539      3.90659631339001
  H           6.48792115205474      0.98817797079376      3.22489874810736
