19
Coordinates from ORCA-job NEB_product E -36.444759692660
  C           2.73181694781847      0.53874847955638      0.84978134507247
  C           1.44186602220017      1.11760226751711      0.38145934921831
  Cl          2.36812921019497     -0.75576592961337      2.02719616506011
  H           3.27225974707255      0.08541503561903      0.01416563470534
  N           1.60687900520681      1.91657543165801     -0.94746559957316
  C           3.60709113550168      1.65799111509639      1.47405552001864
  C           2.86197123588828      2.35224553443706      2.57745383391324
  C           2.48054623859139      3.61388162030945      2.52645697236145
  O           0.36119609837569      1.09948798139464      0.85632288128369
  C           4.92360533863181      1.07449399546903      1.98224707334745
  H           3.82554630711563      2.37026867954670      0.67114793213539
  H           2.64928365717086      1.74305622592892      3.44415401402741
  H           2.68474629375294      4.23822854728804      1.67106664830931
  H           1.95314335446927      4.08038212318245      3.33966141322921
  O           0.63423830657496      2.51449297066714     -1.31035577983309
  O           2.68630326337801      1.87137236291189     -1.48813019894360
  H           4.74228936348001      0.33683511544620      2.75884041511561
  H           5.53275383609791      1.87340197204116      2.39709951576062
  H           5.47143463847859      0.60368647154379      1.17004286479160
