18
Coordinates from ORCA-job NEB E -30.206458841930
  C           1.06130961311619     -0.17143218540843     -0.73111958133125
  C          -0.17759244513051     -0.78060573287366     -0.92145583558272
  H           1.85382733995973     -0.76835630252907     -0.30702835480957
  H           1.38969566580294      0.53983929186097     -1.47700865054289
  C          -1.20952166547888     -0.15170200026515     -1.83838969892813
  C           0.70528436548269      0.88076706546410      0.85476802998084
  C           0.25602845965768     -0.10662573449736      1.74221434232858
  C          -0.91596744405895     -0.82346188280484      1.42933028728536
  O          -0.62590760329853     -1.61048313143966     -0.03544890521413
  O           1.89726543047027      1.48177263319490      1.15297513784861
  H          -0.03861856722314      1.54332386685220      0.41316877219143
  H           1.00857007468378     -0.57410547107760      2.35878124578682
  H          -1.78484233505536     -0.24802302269023      1.12428713353589
  H          -1.16596582963204     -1.65671622506182      2.07081129260115
  F          -0.67780498487626      0.85492090794262     -2.60276290322536
  H          -2.02732654566875      0.28781022292593     -1.24972992844494
  H          -1.62508036067317     -0.89887195657766     -2.52296452013720
  H           2.07664683192230      2.20194965698474      0.53957213665749
