18
Coordinates from ORCA-job NEB_product E -30.242691467010
  C           1.85290577725595      1.71512220946125      0.53910860077785
  C           0.69639559534119      2.32116615340756     -0.23081965221848
  H           1.49600064693282      0.85020845638041      1.09778683034277
  H           2.66478398934343      1.42911399416321     -0.12810787429544
  C           1.13998830592263      3.04015293679594     -1.48919848032798
  C           2.38812536589381      2.75492570290506      1.54488959987686
  C           3.38645939646069      2.10332447965951      2.46183716777601
  C           3.18611740379694      1.90490640515857      3.75040602014948
  O          -0.44010441039303      2.27056056359245      0.14956797019550
  O           2.98651317519297      3.79956357096045      0.79623388408034
  H           1.54259423731733      3.14640101252725      2.13154689681096
  H           4.31030635272725      1.80921856917342      1.98249073313625
  H           2.26768495057505      2.19855306221800      4.23190267426541
  H           3.92445443386925      1.43245026951984      4.37494834796384
  F           0.10201611491693      3.65762541758718     -2.12765056542953
  H           1.58115802924942      2.32793998952317     -2.19602780946347
  H           1.87875359697578      3.80364005841331     -1.21870389373947
  H           3.37974703862158      4.43182714855340      1.40698955009911
