19
Coordinates from ORCA-job NEB E -43.153170799750
  C           0.74258630036275      0.39098618594551     -0.69486949514940
  C          -0.53729557337480      0.55303690906132     -1.47044366181131
  O           1.54245999745245     -0.61756696758130     -1.25827223422714
  H           1.34656028133399      1.30119004300454     -0.84566127144654
  C          -0.41357077012044      0.77107446029196     -2.83509402378976
  C           0.52600500428965      0.22424146237501      0.83370006490754
  C          -0.88981169449351      0.03351364104481      1.23207209102359
  C          -2.01927985555410      0.35886797807798      0.36773179007109
  O          -1.78707677978704      0.56883430569226     -0.98530596529964
  C           1.35423689199744     -0.94379040128578      1.39466118772250
  H           0.95880901591299      1.10764062124599      1.34031849449665
  H          -1.10267971564278     -0.08114577987822      2.27996397933317
  H          -2.52965719556108      1.26923547518725      0.72359552003308
  H          -2.77840295791900     -0.43636470667168      0.41741847542118
  H           1.05321193278709     -1.44736480919761     -1.33622244921543
  N          -0.30339540195935      0.92313565228864     -3.97480451912601
  F           1.19182318016966     -1.02890363798043      2.72565314367024
  F           0.98107026883367     -2.13199330818014      0.89743238807779
  F           2.66440707127241     -0.81462712344015      1.18812648530846
