19
Coordinates from ORCA-job NEB_reactant E -43.208532286370
  C           1.57970564771885     -0.06062805406025      0.64614132124531
  C           1.36513327113941      1.23660445555007      0.36180482906924
  O           1.37935150747352     -0.64979107300437      1.85881796393075
  H           1.93422423518902     -0.69019177328101     -0.15932857688446
  C           1.60580186969628      1.63516068986891     -0.97992010168689
  C           2.46402080833184      1.05882270023489      4.17006267768675
  C           2.22124636198106      1.86284575756672      3.14883677633202
  C           0.86567310422884      2.05654999589714      2.54339474826328
  O           0.92847335284767      2.26587062988914      1.15064115225919
  C           3.82900673563829      0.85900920107892      4.74338350848456
  H           1.69837709650807      0.46842919411701      4.64925739859612
  H           3.01907319164174      2.42910105255818      2.68502002867397
  H           0.42846062152769      2.98379752121058      2.93148206398378
  H           0.20589127464058      1.21914764490860      2.79236524157033
  H           1.72907154248111     -1.54641220605278      1.85551243722591
  N           1.80879203957255      1.94451722547731     -2.06419600068842
  F           4.75642944940058      1.67147987090434      4.22248449846489
  F           3.85376423016030      1.04611732002255      6.07366429595171
  F           4.26870365982256     -0.40003015288594      4.53727573752197
