19
Coordinates from ORCA-job NEB_product E -43.204400661820
  C           2.79397995481154      1.18755945061659      1.48804659789360
  C           1.75779085372885      2.03917906528776      0.75086241504853
  O           2.81209645823280     -0.08083395954483      0.90429470153864
  H           3.76013049811211      1.70893237342179      1.34521102254385
  C           1.46454840234710      1.54024307374576     -0.57932714470112
  C           2.45272990621859      1.19467970641101      3.00174285445638
  C           1.25976357937280      0.32526456203293      3.29367350586611
  C           0.13439095324662      0.79172125811399      3.79770425767436
  O           1.25668473217267      3.02983524783987      1.20828524505144
  C           3.65473569493464      0.72508897358723      3.81025316739600
  H           2.25153103203192      2.23017780691819      3.29802277146086
  H           1.37692073239530     -0.71958778474289      3.04270019769083
  H           0.00658185587177      1.83312696444382      4.04200673222751
  H          -0.70571626566515      0.14641073987662      3.98345795224889
  H           3.51973397237906     -0.62001744717407      1.27850954350182
  N           1.22000846373631      1.17082293720938     -1.63345489713550
  F           4.04786565648328     -0.51905961993130      3.47920605090233
  F           4.72809412222992      1.51131413903147      3.61817977647429
  F           3.41302939735987      0.71674251285667      5.12252524986118
