17
Coordinates from ORCA-job NEB_product E -42.267390683660
  C           1.99644824621692      1.21279633662478     -2.11268425887371
  C           0.62581660801214      0.87753844043235     -2.64050031120963
  Cl          1.82721571692918      0.89873258877533     -0.34928983144108
  H           2.76491459206504      0.53233532373560     -2.48737438109980
  Br          0.45487096622084     -1.00429221273027     -3.07205255890426
  C           2.36632791491949      2.68148713318557     -2.34796088892887
  C           3.51558238432483      3.11480955770197     -1.47670318354734
  C           3.45981989879530      4.15643905984201     -0.67077803600960
  O          -0.29965314618338      1.60247186164214     -2.74270298971497
  C           2.76717638296030      2.85362840544815     -3.81499827417490
  H           1.48973366333578      3.31476993949649     -2.17188770720313
  H           4.40914845949879      2.51304306841453     -1.56339246620654
  H           2.57401057886032      4.76284223708885     -0.58082100669477
  H           4.30210669156540      4.44205481560846     -0.06624597977616
  F           3.87273707499299      2.15771594891860     -4.11754709443038
  F           1.81657979293557      2.42986563761090     -4.66109718611140
  F           3.01376417455050      4.13006185820454     -4.11446384567346
