17
Coordinates from ORCA-job NEB_reactant E -42.251125308820
  C           2.17161296342866      0.32540171952189     -1.07835823123384
  C           1.09198826358461      1.09079019517481     -1.19435478986114
  Cl          3.78174165768964      0.86024226827707     -0.74180119596162
  H           2.09099091810255     -0.74093667251203     -1.20613417181746
  Br         -0.55087610716478      0.22451796492284     -1.58478404465790
  C           2.60947662905297      3.00353642377692     -3.25067013514925
  C           2.84232602753289      3.46137699435759     -2.03140258077239
  C           1.89913907329244      3.31994701433529     -0.87895926244224
  O           0.84414612704104      2.40408131830493     -1.09931994043692
  C           3.58780121948216      3.15408444851099     -4.37104231256560
  H           1.70796375331313      2.48103301205255     -3.53376273961626
  H           3.75804469809875      3.98922625675874     -1.80505305915672
  H           1.39366323106815      4.27785787538482     -0.70974837402367
  H           2.45424929247488      3.06053060616708      0.02907537069669
  F           4.00868856747846      1.96017551217625     -4.82526622539823
  F           3.04740471328668      3.78738544441032     -5.42538565365865
  F           4.68553897223775      3.84224961837993     -4.03133265394480
