22
Coordinates from ORCA-job NEB E -54.679642656920
  C           0.25365420713106      0.71025552561703      0.75083465184074
  C          -1.04849802602165      0.29518738485224      1.10109190805581
  C           0.39334398636143      2.05469469185700      0.08834971520447
  H           0.99092570777254      0.58824756645540      1.54856624489535
  N          -1.15804694710952     -0.62608257998524      2.21160711895000
  C           0.63856226033717     -0.78244615402889     -0.42856792563573
  C          -0.43660600527457     -0.77863100744525     -1.32076603758921
  C          -1.78413833900257     -0.90883278791038     -0.80722780002414
  O          -1.99143497340511      0.22003718322663      0.20018312620613
  C           2.03382915225092     -0.71426602095653     -1.01661747801022
  H           0.63737581688042     -1.49952151707042      0.38902238452127
  H          -0.29105756001764     -0.39244776494797     -2.31827548556631
  H          -1.97581242721459     -1.80720831573568     -0.21407601587776
  H          -2.56287583947689     -0.75051055681809     -1.54730849730997
  Br         -0.31180297637975      3.36800015521745      1.40705928293410
  Br          2.23056422205174      2.58883263176156     -0.23601854545145
  Br         -0.62822841321611      2.30677050292299     -1.53232197468348
  O          -2.12927741853265     -1.35249508631966      2.21902565233544
  O          -0.25428927736653     -0.63168891810371      3.02635907461554
  F           2.12079517813109      0.17872343642482     -2.02315283891309
  F           2.94134069991844     -0.36821188791596     -0.07997132784144
  H           2.33167697218278     -1.69840648109737     -1.41779523265603
