19
Coordinates from ORCA-job NEB E -39.890311371790
  C           0.71533429261218      0.27305369627504     -1.03079825991211
  C          -0.68339059672316      0.20410076952649     -1.16020481300528
  I           1.81258390631557     -1.31620956542753     -1.90264755412463
  H           1.20159264279080      1.22830677681508     -1.19044874002315
  C          -1.50952675483962      1.46876189800450     -1.05701956469969
  C           0.77026376372389     -0.00785488636147      0.87464179281814
  C           0.12665631158193     -1.24270317332144      1.04512098284872
  C          -1.23289276030384     -1.34198687104378      0.68116015391192
  O          -1.27326250547785     -0.91891940976895     -0.94044018861164
  N           2.18707113228865      0.04146694164434      1.19174228178576
  H           0.28719336369077      0.91696586907830      1.17917344496543
  H           0.74920269003262     -2.12689358279795      1.03334867628352
  H          -1.91113168196712     -0.58407336766646      1.06295701108562
  H          -1.66753613917806     -2.33240918898738      0.66632033458530
  F          -0.72693087472667      2.57929742790730     -0.90796751031486
  H          -2.18431706038484      1.42025443471569     -0.19114415875481
  H          -2.10718767498768      1.60452702323052     -1.96589497998542
  O           2.83872356985524     -0.95352758273268      0.98468654413700
  O           2.60755437569718      1.08784279091036      1.62741454701016
