19
Coordinates from ORCA-job NEB_product E -39.927735274170
  C           2.98170013321650      1.16382012233814      1.84048648806402
  C           1.47596194233334      1.32335055303014      1.66971315411764
  I           3.66291108687054      0.07465757887525      0.09198961232668
  H           3.47714390822759      2.13605290652790      1.78211521496643
  C           1.09527974176146      2.44335673014177      0.71301135174801
  C           3.33068247062785      0.46940525349861      3.15864051950611
  C           2.94240771151090     -0.97625592176118      3.23649327424796
  C           2.09502268162375     -1.45374470651437      4.12664901190572
  O           0.67860950404223      0.64342999006236      2.24500283538898
  N           4.80947728527209      0.58621144706977      3.34623385538775
  H           2.86785414421746      1.03909787036195      3.97381107858405
  H           3.43457722162328     -1.62043045194135      2.52092799821557
  H           1.60087568763013     -0.82201001565179      4.84559630110510
  H           1.84417507383243     -2.49896705080179      4.15219887623035
  F          -0.25489212062709      2.51690534925552      0.57060554454626
  H           1.52515938544894      2.28029053501880     -0.28194554160655
  H           1.43658417469337      3.40713859433388      1.11237733319011
  O           5.50811824451002     -0.07300911578530      2.62172768136799
  O           5.18725172318521      1.35250033194170      4.19586541070781
