26
Coordinates from ORCA-job NEB_reactant E -35.772325041640
  C           0.96153927649517     -0.49560735090376     -0.13984330044707
  C           1.61652653833265      0.11770605663956     -1.12787222686262
  N           0.30792158878607      0.17744998823937      0.89325105371979
  H           0.99933028729304     -1.56968309594223     -0.06423596230861
  O           2.40371109171525     -0.61056928913643     -1.99512544624325
  C           4.59197566591686      2.78503780794862     -2.17067700626234
  C           3.96145592665704      1.93311245822761     -1.37897892877086
  C           2.64622750059993      2.21726187498605     -0.72126534815761
  O           1.56041607324033      1.48250599862796     -1.30506009466682
  C           5.89590156801837      2.51081908086359     -2.84818617391128
  H           4.17742213638168      3.77111030392705     -2.34310413801877
  H           4.36085139271529      0.94231327850856     -1.20750162694303
  H           2.36409321777881      3.26531431913627     -0.85019390073095
  H           2.70113275002297      1.97869222656506      0.35013946712265
  H           0.12434831630282      1.14449122868124      0.65721755640566
  H          -0.52381123683950     -0.29301392451244      1.22007531146906
  C           2.27946596563304     -0.25652510690443     -3.35889512451929
  H           3.01615698685748     -0.85379149981663     -3.89218435319031
  H           2.48532619737479      0.80637432092481     -3.51326503620182
  H           1.27570377019381     -0.48648096000105     -3.73151990776806
  C           6.96987873449885      3.50069572660942     -2.39755242976204
  H           5.76134633448847      2.60218468208639     -3.93019757446399
  H           6.21833854377671      1.49103575206611     -2.63125821206522
  H           6.66705816077552      4.52118076035857     -2.62206425477288
  H           7.90972152619581      3.29991402179225     -2.90641329777401
  H           7.13196168678871      3.41877134102846     -1.32518904487632
