20
Coordinates from ORCA-job NEB_product E -47.846316546990
  C           2.57359088233057     -1.70680074002880      0.30325081076247
  C           1.37388899515125     -1.97995605354510      1.19019543525644
  C           2.22955083293209     -0.64391771549786     -0.75811782178487
  H           3.41114406286831     -1.30982963578592      0.88617949841784
  C           1.47455324862309     -1.50177084396134      2.63640283638165
  C           3.01677277263015     -3.01428991070544     -0.38155812492760
  C           2.06902186727499     -3.55229809042288     -1.39370020384542
  C           2.43698202297696     -3.81810109721997     -2.63392660222278
  O           0.35654504727325     -2.47966907812988      0.81546637064865
  Br          3.25840048251897     -4.37017332726971      1.05730233139539
  H           4.01113767015533     -2.87400007547787     -0.81192927352033
  H           1.05799285448949     -3.72705119647336     -1.05519528213052
  H           1.73736013644000     -4.20690050253640     -3.35174175028643
  H           3.44297674409001     -3.64716871857483     -2.98201166930203
  F           3.25151692995006     -0.54500602194767     -1.63735667896176
  F           1.13636834789685     -0.96604952994144     -1.46949120388834
  H           2.06722859484646      0.35308419190786     -0.31850668553553
  Br          1.20056167853592      0.44278551487366      2.46499961325091
  Br          0.03870908999014     -2.26315018721646      3.67063213330452
  Br          3.16109773902610     -1.80793698204657      3.52460626698774
