16
Coordinates from ORCA-job NEB E -36.537588840410
  C           0.59690181716319     -1.00139430184652     -0.14235015401138
  C          -0.73676564631944     -0.45408821109698     -0.47798190039309
  I           0.44960755344847     -2.19277794371469      1.68330455095873
  H           0.94523634873883     -1.68678773970148     -0.91389437883803
  N          -1.44526203696286     -0.98538123661614     -1.58043995474522
  C           1.44697077403835      0.25271080036297     -0.01368798731353
  C           0.49675871041800      1.34016631581457      0.22182827835192
  C          -0.71671485209781      1.12214693706227      1.06093075751779
  O          -1.51164850342799      0.15061579596896      0.43859520534343
  Cl          2.73711516874908      0.23541150234709      1.29492089429331
  H           2.01831212034313      0.40500638161340     -0.93093177626832
  H           0.89148904296461      2.34666399188699      0.19448199398780
  H          -1.33485421568045      2.01772264030144      1.15806933381713
  H          -0.41569426266176      0.80415755175314      2.07450558204636
  O          -2.61476703969701     -0.67846294173628     -1.70144176434410
  O          -0.80668497901634     -1.67570954239876     -2.36590868040278
