16
Coordinates from ORCA-job NEB_product E -36.579114168420
  C           3.04222484507677      1.18656180720938     -1.22511266682829
  C           1.57773513996370      1.14390023261077     -1.46298330675200
  I           3.23553205931152     -0.33680577496293      0.31535820059154
  H           3.60412700592829      0.79278982991326     -2.07347310370289
  N           1.15531127051172     -0.05580547909360     -2.35928663326429
  C           3.54966419748693      2.55288500059524     -0.79612714072715
  C           2.89308391095285      3.11524199903637      0.41761168639030
  C           2.36892567858364      4.32554523589744      0.46732864121866
  O           0.71225787366252      1.84768918706685     -1.06525649046999
  Cl          5.32410877152876      2.40755890185445     -0.48614287576740
  H           3.44360819680177      3.23745382503151     -1.64431093967972
  H           2.89917364182834      2.47416381607340      1.28842589869232
  H           2.36428271235083      4.98266905701279     -0.38648923693849
  H           1.91374639607171      4.70196265478079      1.36578935222802
  O          -0.02486113468985     -0.19431788566197     -2.50168634025490
  O           2.04267943463050     -0.71339240736375     -2.84554504473573
