16
Coordinates from ORCA-job NEB_reactant E -36.578711297480
  C           2.16113239785117      0.31429961355775     -0.47768166040011
  C           1.57198486165165      1.29763324558911     -1.15742535322796
  I           3.02710063825799      0.32050031941632      1.41868028525218
  H           2.19473037900658     -0.65712549030411     -0.94638123823378
  N           1.05296247390446      0.92667983616291     -2.49841299197515
  C           4.08045589381252      3.22575895351313     -1.15467010104752
  C           3.42030195124195      3.40430422414501     -0.02157335346376
  C           1.92482259265266      3.32403170058899      0.08257438933017
  O           1.31624289873463      2.59199492443552     -0.96623334985101
  Cl          5.78972379940960      3.31153429798738     -1.25335775903623
  H           3.60040440406693      3.01996807129362     -2.10006745127863
  H           3.93898041061327      3.62900973359463      0.89756198090112
  H           1.48885391938072      4.32464703640178     -0.01287793735638
  H           1.63248261822894      2.91902168897595      1.05758969973342
  O           0.70528871883977      1.83477397031420     -3.20514682781968
  O           1.02553204234717     -0.24753212567219     -2.78187833152668
