20
Coordinates from ORCA-job TS E -35.765047513540
  C          -0.46062734343604      0.32303576886349     -0.96632866764518
  C           0.82670028147535     -1.88665543392744      0.27390026543908
  C          -0.50865614638612     -1.88469418645515      0.01753274564713
  C          -1.14864136220916     -0.81583177953162     -0.62900821349938
  C           0.22484806589576      0.93342455028688      1.07197420318216
  C           1.06664684044650     -0.00805786421533      1.58806693697984
  H          -1.14018959490474     -2.63379874151921      0.47310632196057
  H          -2.22999459536316     -0.80611138191113     -0.64700038399177
  C          -1.16588818729945      1.47336169766439     -1.57185114277459
  H           1.26012939300426     -2.66384281239676      0.88077296757778
  H           0.58012112235934      0.26038511394371     -1.24977051857178
  H           1.52580623323197     -1.36074236000823     -0.35089519203336
  H          -0.78573182520965      0.98234761323433      1.43125139440767
  H           0.75965025034056     -0.70491226976830      2.34994044856222
  H           0.64084807906495      1.83860479438580      0.65999286299224
  O           2.41824755204949      0.07331008485782      1.49354335634805
  Br         -2.74659952886107      2.01923796178744     -0.56718656521500
  Br         -0.00343005115458      3.03085722526772     -1.75583105948934
  Br         -1.77966996889725      1.01480492981675     -3.42833259599492
  H           2.66643078585304      0.81527708962482      0.92612283611859
