20
Coordinates from ORCA-job NEB E -46.208222821740
  C           0.34196415839254      0.57934391673202      0.80981184409362
  C          -0.82670581017764     -0.17228111739205      0.68015350434570
  C           0.34193700501781      2.05996206250425      0.49468160449451
  H           0.94176451235634      0.39608541511702      1.69765942320278
  C          -0.93356053910824     -1.43369530890091      1.52091594404766
  C           1.38723390824700     -0.16333376698631     -0.68584760747376
  C           0.49012800894060     -0.04909093884024     -1.73121971119337
  C          -0.76191204774085     -0.76235134279398     -1.64892231692179
  O          -1.51998543095332     -0.13965751863966     -0.43656359347454
  H           2.27534259579782      0.45287173969396     -0.70037170845730
  H           1.53169181627128     -1.13017129588278     -0.22349739313720
  H           0.53094584710802      0.81536831139259     -2.37663399461908
  H          -0.68122824456444     -1.81937320858314     -1.39641133070424
  H          -1.45139105475005     -0.59359959261829     -2.46898874987357
  F           1.61068078799644      2.53504451825945      0.44023168152593
  F          -0.23066192264081      2.38169668440381     -0.67852573996456
  H          -0.18364989474829      2.62105871174535      1.28688746082338
  F          -2.14932795143379     -1.97442449417674      1.47726377262560
  F          -0.07209388767754     -2.40817503934567      1.12950472223870
  F          -0.64117185633288     -1.19527773568867      2.80987218842150
