20
Coordinates from ORCA-job NEB_product E -46.239418383640
  C           2.62799953347746     -0.69931977863433     -0.62710353130850
  C           1.22389498511679     -1.20571921985294     -0.42978684698475
  C           2.65848154319088      0.83475799743806     -0.55608448776046
  H           3.26536009314185     -1.06179354603135      0.18726552005077
  C           1.15586308968481     -2.68835363972160      0.05659670243458
  C           3.19341272739528     -1.22310295970980     -1.97722689150371
  C           2.15709007962414     -1.24649817881014     -3.06349204555878
  C           1.79695932073357     -2.34422141714968     -3.70020573805841
  O           0.21912214831554     -0.57672485582307     -0.56566126540412
  H           4.01338228362794     -0.55931300046712     -2.26403995699204
  H           3.59822333528296     -2.22519332049326     -1.83494079774884
  H           1.71210895741255     -0.29373283333843     -3.31106586707110
  H           2.22756836591398     -3.30500812266845     -3.46995031747273
  H           1.05733960706725     -2.32591062974782     -4.48122120552159
  F           3.93531683820452      1.24104072159582     -0.35724613262582
  F           2.25596227652967      1.41656550862141     -1.70044057660191
  H           2.04136106305151      1.23510251204011      0.26318026193772
  F          -0.09458222102393     -3.11855398154322      0.16218385013878
  F           1.81495709036792     -3.54098776841344     -0.73451861414699
  F           1.72347888288533     -2.77873348729074      1.27365794019792
