18
Coordinates from ORCA-job NEB_reactant E -39.150450064910
  C           1.87035544505372     -0.43895516775847      0.27243019795455
  C           1.41449797033889      0.62544984158460      0.94933785330662
  C           2.23585788553049     -1.69186556419028      0.78370259569950
  H           1.96140671853075     -0.35781938150702     -0.80139655906297
  H           1.14534566595734      1.52317124996404      0.40536515925790
  C           3.75873958876479     -1.24753552088519      3.65963172883476
  C           3.02211072244138     -0.16615418932780      3.47198336821406
  C           1.54952182336427     -0.18086635225894      3.19279861741657
  O           1.18773528401494      0.81664859827473      2.25262311233657
  C           5.22109205334677     -1.17952878581119      3.96945597322982
  H           3.37034182008387     -2.25238373180927      3.59333022094848
  H           3.46217065541680      0.82167066181603      3.52572035300693
  H           1.01574047265645      0.10005477153853      4.10817555781279
  H           1.21250737822682     -1.17105730102494      2.87318524297769
  N           2.53414304095407     -2.73862350950990      1.15231678748811
  F           5.68504716217451      0.07543010716793      4.07274193332344
  F           5.51212185103226     -1.78743325752160      5.13327311549868
  F           5.96656446211185     -1.78370246874126      3.03202474175651
