18
Coordinates from ORCA-job NEB_product E -39.148136546710
  C           3.07118181451235      0.15917236951679      1.49998406626341
  C           1.75358295093395      0.91494739678486      1.35446889343688
  C           3.17442171194933     -0.82377702236125      0.44281437656209
  H           3.87073025259339      0.89946617844995      1.34474868143764
  H           1.55494960058964      1.23733638255681      0.31755970817596
  C           3.19474516130131     -0.46749226104605      2.90600093076452
  C           2.35871635772072     -1.71244998581942      3.04388868605281
  C           1.32316162666885     -1.79823239062633      3.85514505420233
  O           1.01367399253185      1.15566753631662      2.25746667458983
  C           4.65385167785585     -0.78955710119084      3.21148066323665
  H           2.87092919174963      0.28080682717642      3.63897687412193
  H           2.66205808151748     -2.54209376631719      2.41982885771743
  H           1.01212079913850     -0.97164885992042      4.47179549870679
  H           0.74034208949299     -2.69935848356554      3.92529090159810
  N           3.23016877780625     -1.59901928557320     -0.39277692768851
  F           5.43874785061817      0.29885260227419      3.09453820117139
  F           4.80956113823595     -1.23705406376971      4.46215442632753
  F           5.17235692478379     -1.71576607288570      2.39743443332324
