23
Coordinates from ORCA-job NEB E -38.808408401610
  C          -1.27438647791519      1.13626794831268      0.97048290228196
  C          -0.21578661153962      1.62102573815617      0.42524887016012
  C          -2.63534338127021      1.75429994111268      1.05312880068299
  H          -1.19482449779230      0.16604186379945      1.45883039939294
  C           0.94398575445720      2.06576984146794     -0.22094515722510
  C           0.74681148833290     -2.17641961665170     -0.25766735004346
  C           1.16277143726377     -1.12110869948768     -0.94293020230390
  C           2.52263441634721     -0.48566176689460     -0.76212602265768
  O           2.38879447637698      0.50794342916015      0.14483317069702
  C          -0.63193118708809     -2.68544295019343     -0.21001941242278
  H           1.43334617184483     -2.74027760473462      0.36211491106528
  H           0.46636456317638     -0.55685156417570     -1.55060501887172
  H           2.89371400608210     -0.12959878212484     -1.74874860428525
  H           3.24113491133026     -1.24392219868365     -0.39908281694383
  H          -2.65676185896281      2.74068639537123      0.59804680508347
  H          -2.94110698298266      1.82946828291655      2.09435534576004
  H          -3.34589237542264      1.10848032824660      0.54009659056569
  H           0.11456544122391      2.91462867976770     -0.29128954697398
  H           1.15734955440500      1.73887310398781     -1.22591565269051
  H           1.77261952298511      2.44631086250601      0.35608869906470
  Br         -0.72823138027879     -4.56164930051624     -0.82231410231290
  Br         -1.30364447952870     -2.66027660229144      1.67675892753186
  Br         -1.91618251104466     -1.66858732905102     -1.24834153555495
