14
Coordinates from ORCA-job NEB_product E -26.429346022020
  C           1.14416123601059     -0.85475851952989     -1.30374653369528
  C           1.84521306733282     -1.47431939696102     -0.14007666784956
  H           1.89797623666095     -0.48816350630752     -2.00513016765819
  H           0.49804446943167     -0.03489034437783     -0.99002012307697
  Br          0.87120473707096     -1.22326941668498      1.54855825413847
  C           0.30314304416188     -1.93962818813936     -1.99685531641178
  C          -0.81739636762973     -2.43206760839627     -1.14538236129967
  C          -1.02522112900073     -3.70898632718970     -0.88120246662434
  O           2.84580453678234     -2.09862263460042     -0.12857925957929
  Cl         -0.39631107083240     -1.21179063744541     -3.49394957058278
  H           0.94187303994754     -2.76209215784178     -2.32913511448944
  H          -1.47705386616824     -1.66751739128472     -0.75937435817739
  H          -0.37958231272961     -4.48264117293195     -1.26380219948709
  H          -1.84575562103804     -4.02985269830914     -0.26430411520669
