14
Coordinates from ORCA-job NEB_reactant E -26.406908466970
  C           2.00271478457680     -0.09191881457939     -0.09614571470335
  C           1.29287155919480     -1.18345192503372      0.12920038826875
  H           2.71422687144727     -0.07103237361292     -0.90188298039168
  H           1.90525363231717      0.78133016679296      0.51947227582411
  Br          0.00546747894737     -1.18106526415089      1.57797199337764
  C          -0.74029773944403     -2.80638215874226     -3.07507929088736
  C          -0.57334319041079     -2.41143540450389     -1.82448580653529
  C           0.32672773617542     -3.12414680674509     -0.86087804743837
  O           1.46308951938562     -2.34105258868770     -0.51323194109181
  Cl         -1.76261927525583     -1.98835692986196     -4.18140781421294
  H          -0.26050742443761     -3.68048269822627     -3.48913960603607
  H          -1.06886082857434     -1.52592392855544     -1.45155529652592
  H           0.74335383846700     -4.02995713799676     -1.30395505950035
  H          -0.23287696238886     -3.38682413609667      0.04771689985264
