17
Coordinates from ORCA-job NEB_product E -31.917613459820
  C           2.68681622752983      1.13648457132235      0.44143449717524
  C           1.46575908631881      1.10185746752715     -0.47985103236724
  C           2.62403743197342     -0.04953029395904      1.26826779057076
  H           3.59634956158253      1.08990930708100     -0.16761141235707
  O           1.74084182599947      0.44875976669737     -1.60473258403802
  C           2.65723164250065      2.41498606460967      1.31367066801279
  C           2.80781947157435      3.64045676152411      0.44824237016203
  C           1.88123360253116      4.57218270470184      0.34368494194647
  O           0.40250949315213      1.58429858294659     -0.21951913358279
  C           3.74096614657831      2.37556093293124      2.27195411489551
  H           1.70292770189701      2.45117080248958      1.85261118795120
  H           3.74323209836516      3.70964902382949     -0.09181450186782
  H           2.01693935160692      5.43348226083949     -0.28722898612511
  H           0.94696901113471      4.50837419213839      0.87615863830566
  N           2.56444572542246     -0.97932616215582      1.92763369177222
  H           0.95968016591233      0.38602215749297     -2.17818192808778
  N           4.61994145592074      2.36606185998362      3.00088167763396
