17
Coordinates from ORCA-job NEB_reactant E -31.903167702630
  C           1.75505681404281      0.20167653963220      0.11719138246003
  C           1.60469558047258      1.04578655207251     -0.92186384014728
  C           1.72030564740605      0.51009450915056      1.47615920202334
  H           1.89810943894177     -0.84161820628639     -0.12143666880442
  O           1.62595253520521      0.55595338839549     -2.16999500981465
  C           3.31747275893762      3.32219165394702      1.97032539591643
  C           2.92614649898366      3.31272991952521      0.69863123876674
  C           1.50538991810045      3.14245085660479      0.25866710969728
  O           1.40618092682738      2.38032349382196     -0.93544486989345
  C           4.66318075901746      3.52826898702639      2.33227123351473
  H           2.62754100459546      3.16138897134255      2.78773545609816
  H           3.64240696741640      3.45359446050585     -0.10097288049497
  H           1.09297403227075      4.11959429596710     -0.02113331383441
  H           0.88676433860052      2.71060165040498      1.05050344219772
  N           1.69301013406729      0.70980190858110      2.60860230971041
  H           1.49840055637558      1.27932617542100     -2.79957741921881
  N           5.75671208873900      3.70443484388767      2.62733723182314
