21
Coordinates from ORCA-job NEB E -33.352006978910
  C           0.38356789392598      0.65956231730124      0.29674942267430
  C           0.50705702708826     -0.51826621275194      1.05551198595869
  O           1.35406254656123      0.93107571666978     -0.63402705295873
  H           0.00358565557429      1.53784220524059      0.81599743903016
  C          -0.35304586075631     -0.63034404527302      2.30080995808538
  C          -1.13777002337852      0.08212786889411     -0.84438504021739
  C          -1.24255968574189     -1.30745556753026     -0.77942151573585
  C          -0.04810466776964     -2.03703773787926     -0.91721036275654
  O           0.83433318470683     -1.63097357292637      0.50178899830506
  H          -1.98773926048400      0.66908143296346     -0.52120482644664
  H          -0.63171147325206      0.48088116289640     -1.71174571574645
  H          -2.03037291677817     -1.74182919564330     -0.17574401789048
  H           0.66416574440643     -1.67775160513453     -1.65032794590972
  H          -0.07428835372492     -3.11299434081387     -0.81886058420740
  C           1.36935755055075      2.25123620296225     -1.12028221836164
  H           0.46599276609258      2.48385217937374     -1.69661480723053
  H           2.23893452368185      2.32591609466836     -1.77034000365205
  H           1.46186547266907      2.97393046246781     -0.30245681822491
  F          -0.55801132337197      0.58325757533186      2.90349572020573
  H           0.12368622737585     -1.28917002958247      3.03224271190159
  H          -1.34300502737563     -1.03294091123458      2.03602467317744
