21
Coordinates from ORCA-job NEB_reactant E -33.385761035940
  C           1.46501085054929      0.21160099305277      0.01682443459055
  C           1.36689860191240     -1.07788820944216     -0.32102302243044
  O           1.26664994672060      1.22366021515093     -0.85891754844183
  H           1.72456676430703      0.48318420345848      1.03417118861854
  C           1.52169296009757     -2.16111670719184      0.71312245309112
  C          -0.72880150568207     -3.69534014692481     -3.62818866929555
  C          -0.19157030801622     -2.54947293079148     -3.25656361664094
  C          -0.14269219371684     -2.06011139565928     -1.84467926398102
  O           1.13541191098583     -1.47052180810110     -1.61802539980877
  H          -0.76032597421220     -3.99934897502021     -4.66013892528179
  H          -1.17258710521510     -4.37266321341120     -2.91660512305159
  H           0.25846644556460     -1.87673785153075     -3.97207293355497
  H          -0.32955714496370     -2.88079874593344     -1.14018787397807
  H          -0.92099866627787     -1.29477199787890     -1.69219841785610
  C           1.60731635601202      2.50750864588397     -0.39221460802922
  H           1.32281965227642      3.20399485722853     -1.17861445753142
  H           2.68343281850012      2.59074492727350     -0.20683008206955
  H           1.06524749916257      2.75527425178234      0.52670770258743
  F           0.34778340045480     -2.35126544453732      1.42602722674821
  H           2.28472244482327     -1.90688324378884      1.45379961576342
  H           1.75571324671750     -3.11744742361918      0.23670732055198
