15
Coordinates from ORCA-job NEB E -29.409831693300
  C           0.99588250556836      0.42776598977119      0.97509996112578
  C           1.58247589516187      1.01400695680286     -0.11065787509857
  I          -0.02270797171760      2.01244828994566      2.32323417697966
  H           1.71952576717224     -0.00791758371190      1.66328527131176
  I           2.56170622182121     -0.27225224477892     -3.02634900158643
  C          -0.07710965344182     -0.66643259355842      0.58982697096173
  C          -1.01499299365425     -0.12607428071468     -0.44777620785384
  C          -2.28247908146134      0.14083057959160     -0.20336660199268
  O           1.96580695887292      1.44679916569714     -1.10774733555120
  O           0.59035933538411     -1.81533628312681      0.19824339769704
  H          -0.61308413402938     -0.91467225002621      1.51389269432245
  H          -0.57864793415275      0.02820410816915     -1.42593763930757
  H          -2.70691798881326     -0.02134967255532      0.76700358587583
  H          -2.94048258346836      0.52718691171642     -0.96035951796869
  H           0.82066565675804     -1.77320709322179     -0.74839187891527
