15
Coordinates from ORCA-job NEB_reactant E -29.460550138470
  C           1.91128898907156     -0.08727585670937      0.52280895276272
  C           1.69298874550509     -1.30508506022333      0.03491807386621
  I           3.25838449427063      1.30000159946521     -0.25043928622130
  H           1.39107404030074      0.22972069002543      1.41124469593123
  I           2.68468814835614     -1.98343454435407     -1.72225880771080
  C           0.37308055736931     -5.39198144639866      1.00304111252481
  C           0.74279532900547     -4.48827981830498      0.10336366414691
  C           0.11276133915022     -3.13588852647577      0.01423080997418
  O           0.89348175348383     -2.14318475017031      0.69608868146981
  O           0.90137820227690     -6.61764123538692      1.15676119503649
  H          -0.43015756665371     -5.21656720837561      1.70505163620727
  H           1.55776239297458     -4.69624112517830     -0.57658728356700
  H          -0.85101394878382     -3.13140443554619      0.52983372307217
  H          -0.03639095239137     -2.84061213712888     -1.02970229667244
  H           1.62397847606444     -6.75452614523825      0.52934512917973
