15
Coordinates from ORCA-job NEB_product E -29.467676251070
  C           1.82839840728032     -2.27806027808997      1.13877105169745
  C           3.13210430009300     -2.40031176771445      0.40637154082997
  I           0.84677210526775     -0.41666110623647      0.76313802522095
  H           2.08051635632964     -2.29495312618743      2.20410084736996
  I           3.11545052244320     -1.88294724276905     -1.68667261081778
  C           0.88243318490701     -3.47923163141321      0.89738855509466
  C           0.46625159945070     -3.67197816991709     -0.53335006302976
  C          -0.64751923251054     -3.18408836562624     -1.04757175578819
  O           4.14689100518647     -2.74883937469353      0.90045685930972
  O           1.59521229399444     -4.58950148628646      1.39632374904588
  H          -0.01568256611871     -3.29435122411402      1.51300341556534
  H           1.13741227952864     -4.28110398374398     -1.12388606320951
  H          -1.33406470798176     -2.59050980334234     -0.46609599426481
  H          -0.90707013822647     -3.34629774924076     -2.07852360614452
  H           1.09639459035631     -5.39486469062500      1.22114604912065
