20
Coordinates from ORCA-job NEB E -32.866337832990
  C           0.39100915797422      0.56798525450743     -0.57589546980728
  C          -0.63449947585483      0.73155242118227      0.44295368320104
  C          -0.14073776423987      0.02383001456847     -1.90710277317713
  H           0.90381587733056      1.51522867611597     -0.75727039223291
  C          -0.83483282784139      2.02772935105346      1.17051508333829
  C           1.41858159988526     -0.46343648138122      0.06180447097012
  C           0.73537754259557     -1.62504396149947      0.52202526982112
  C          -0.70621336468092     -1.58363763475822      0.85744168314768
  O          -1.29884545668563     -0.31224035697172      0.94595212782522
  Br          2.92831817140231     -0.97459572658141     -1.32425638194190
  H           2.04761009733795      0.08979111785700      0.75351553289827
  H           1.12230703457358     -2.60590511808014      0.30541481929703
  H          -0.86840889834954     -1.99936348359560      1.86141950314104
  H          -1.28679473147283     -2.21639708984870      0.17048350901034
  H          -0.59456553686638     -0.95546908086862     -1.78495175922386
  H           0.66630002170923     -0.05721794393720     -2.62893151978919
  H          -0.88958214313469      0.70746276996673     -2.30042449069821
  F          -2.13592080551582      2.17354516274162      1.57360551348687
  H          -0.59800223228087      2.88045598207213      0.52582951808793
  H          -0.22491626588590      2.07572612745723      2.08787207264553
