20
Coordinates from ORCA-job NEB_product E -32.922427476520
  C           2.71372288818281     -0.82650918699380      0.61569724786192
  C           1.30263674123562     -0.68651944506728      1.18388118193713
  C           2.69339736331798     -0.53224816704694     -0.88327869478975
  H           3.38781981924462     -0.12651725432750      1.12033100342727
  C           1.24302549393275      0.19097381131376      2.42437193284534
  C           3.17025376831521     -2.25710313306590      0.94440305892086
  C           2.41842425141279     -3.32396730118750      0.23311152460524
  C           1.71394344442712     -4.24845662285446      0.85937444415858
  O           0.34539107879260     -1.22563557290888      0.70734673226831
  Br          5.09997306315466     -2.42454426319188      0.49360077381923
  H           3.13576080500659     -2.41790324575009      2.02551051542795
  H           2.49188303695269     -3.31621275892544     -0.84438231779046
  H           1.63629564005985     -4.27926250718382      1.93417818928266
  H           1.17397975388673     -5.00559134661417      0.31930541248835
  H           1.88879603748254     -1.08264429812956     -1.36445404632953
  H           3.64288204098822     -0.80552553400988     -1.33842629190339
  H           2.52748653080987      0.52989325921030     -1.04841244142199
  F          -0.00194315520264      0.20439477513977      2.97891390175121
  H           1.49760617313707      1.22430213962652      2.15753140731940
  H           1.94066522486292     -0.17422334803323      3.18769646612169
