20
Coordinates from ORCA-job NEB_reactant E -32.909227983890
  C           1.58158606399784     -0.24787094680593      0.12284667142214
  C           1.53390589543491     -0.44858106780866      1.43476020179259
  C           2.29292013509893     -1.02958806833499     -0.93513443761324
  H           1.04599885002703      0.61862302929066     -0.23679240361286
  C           0.82612890739151      0.50612490145306      2.37097169521424
  C           3.82244355619264     -4.08249268825276      0.40589889516090
  C           3.54174019281769     -3.17233465168752      1.32052687961116
  C           2.14210141279543     -2.77366926980948      1.69325515221909
  O           2.07526536114496     -1.45681080560571      2.20068916079184
  Br          5.59219866597000     -4.61256242434232     -0.00030321422131
  H           3.07977377438682     -4.60291530834684     -0.17812136853366
  H           4.32173064433610     -2.67672501882879      1.88079057379368
  H           1.81741074432373     -3.41853045072790      2.52360311936599
  H           1.44891135354130     -2.91432059525001      0.85853539748583
  H           3.12104607867804     -1.60410292748318     -0.53113408004611
  H           2.68467865820077     -0.34000759538616     -1.68024419019734
  H           1.60879621451362     -1.70834813371118     -1.44729042946656
  F           0.44738033754942      1.66284206668460      1.74926906699935
  H           1.49536141315043      0.77652866595366      3.19496285160752
  H          -0.08277825955119      0.04604128899946      2.77791045822675
