18
Coordinates from ORCA-job NEB E -41.372514201320
  C           0.31283289617133     -0.70429395255800      1.13665885739640
  C          -0.87473996995679     -1.65712558208891      0.95498509855350
  F           0.11149969775364      0.04321909342482      2.26037854145539
  H           1.22588815131627     -1.29811026874332      1.29571995582156
  C          -0.65950473341887     -2.55470072371415     -0.17097674153590
  C           0.42564373907976      0.20242372139505     -0.10534665476344
  C          -0.83482529567337      1.02540743761356     -0.19892428066256
  C          -1.60058953590387      1.04650635283583     -1.27334732265751
  O          -1.85046162713260     -1.66556646289784      1.64479519066314
  C           1.70407062062144      1.07966093724986     -0.13366604599538
  H           0.46972448983010     -0.46366049886481     -0.97605686838297
  H          -1.09352442028323      1.58303607755477      0.69054972939522
  H          -1.35783615681619      0.48799306525661     -2.16325878041200
  H          -2.50042278743929      1.63412885389688     -1.30470410150803
  N          -0.45630865399164     -3.23821767180243     -1.06518766111718
  Br          1.30888455438341      2.98101179584623     -0.35510306777790
  Br          2.85268770622411      0.94013194390158      1.44003424729935
  Br          2.81698132523576      0.55815588169427     -1.67655009577169
