18
Coordinates from ORCA-job NEB_product E -41.384329549040
  C           3.06812847001117      0.93150767540621     -1.80130315053903
  C           1.85260398658361      0.11903870057034     -2.25437370977473
  F           3.32770049316137      0.70091565972626     -0.47805444000306
  H           3.94296296787133      0.56835829734417     -2.36553891344531
  C           1.44715402975307     -0.89772562979482     -1.30281159170742
  C           2.80557427979815      2.42262963789443     -2.07911995001062
  C           1.77250241696822      2.94651745881634     -1.11582647763915
  C           0.63974869909315      3.49921912927129     -1.50472647968456
  O           1.30054482536603      0.30505506650328     -3.30370048092364
  C           4.06865475343063      3.27650841100471     -2.02537843068590
  H           2.41610165463711      2.48179897139642     -3.10544014130377
  H           2.01680355721388      2.83358182952787     -0.06827576948514
  H           0.38476387708498      3.61434841447025     -2.54562559166722
  H          -0.07846200691098      3.86128742418387     -0.79079858223825
  N           1.12928188869713     -1.70819534668365     -0.56206668082217
  Br          3.60985853611274      5.11414287497556     -2.51973261814905
  Br          4.90359967599403      3.31535148929546     -0.26906452776041
  Br          5.39877789513435      2.64605993609202     -3.32666246416058
