16
Coordinates from ORCA-job NEB E -31.567499948180
  C           0.14723653556017      1.35035840714203     -0.45530574298655
  C          -0.36053886494791      1.18812286050973      0.83444111764281
  F          -0.72671313752938      1.38881399753072     -1.47789749619013
  H           1.00283105307969      1.99197628996931     -0.63096957574387
  O           0.48667046304044      1.51374954133968      1.85092104887355
  C           0.78467659991683     -0.57483811960088     -0.65824531568181
  C          -0.41897023193525     -1.25408691651283     -0.48347031077939
  C          -1.02241434957276     -1.20217151825565      0.79613810036361
  O          -1.36206172931990      0.42416129679918      1.07431658373398
  C           1.39881562018484     -0.54550031937696     -1.93863076068478
  H           1.49851024449548     -0.53593341590311      0.16093492099278
  H          -1.03899904457134     -1.43344587948858     -1.34898840031348
  H          -0.37926944917730     -1.38949121632414      1.65166174856774
  H          -2.00834898142374     -1.63390908323225      0.89937245402479
  H           0.09313269840641      1.23577709187161      2.69019154629105
  N           1.90544257379371     -0.52358301646785     -2.96446991811032
