16
Coordinates from ORCA-job NEB_reactant E -31.596671919550
  C           1.56702787613883     -0.40022976081152     -0.51377241186599
  C           1.45745186552416     -1.17312848053667      0.56472639653928
  F           1.21491353207959     -0.78382804493442     -1.76687941218309
  H           1.95049650091747      0.60192877716897     -0.46317689071722
  O           1.82848095196215     -0.66375472396996      1.76082480440858
  C           2.01445001933748     -3.62889118072798     -2.54422517093191
  C           1.94644869591607     -3.58426749700565     -1.21605448271625
  C           0.71169889854750     -3.21584096175057     -0.45558612916495
  O           1.00212230717726     -2.44741954472320      0.70143489357173
  C           3.18774487031596     -4.01245015325260     -3.22232931570677
  H           1.17101013344418     -3.37039231500122     -3.17029629737910
  H           2.80960089151107     -3.82675017331044     -0.60971805284793
  H           0.24773419056057     -4.12490354297966     -0.05414331698547
  H          -0.01404484143528     -2.70402912845735     -1.09526397042615
  H           1.67270136086157     -1.34084708085047      2.43360104127840
  N           4.13536274714140     -4.33929618885726     -3.77864168487315
