16
Coordinates from ORCA-job NEB_product E -31.621379340680
  C           2.85959559960208     -1.91928912426532     -0.39611688698017
  C           1.99637345859662     -1.94071643862504      0.86545661661142
  F           2.92413993878893     -0.65850440059565     -0.91843537703641
  H           3.88574792231267     -2.20944757965154     -0.12664984238300
  O           1.59821816155269     -0.73660184849000      1.23582672050207
  C           2.26901897094751     -2.91415595687693     -1.42092879358140
  C           0.92439831635430     -2.43742542517579     -1.91164705274182
  C          -0.19252628210212     -3.11295574548865     -1.72802697036669
  O           1.72111316850095     -2.95657297400593      1.44294610155593
  C           3.17065980433582     -3.06667434585195     -2.54276396651255
  H           2.17045227885209     -3.88139627540934     -0.91347185253601
  H           0.93732238683729     -1.48451315250682     -2.42200883294040
  H          -0.20954777079861     -4.06185154337850     -1.21689067960495
  H          -1.13850740459883     -2.74179152564440     -2.08216722515269
  H           1.05152343875501     -0.77584142393231      2.03742216515226
  N           3.87141801206361     -3.18726224010182     -3.43614412398559
