20
Coordinates from ORCA-job NEB_product E -51.803283102490
  C           2.55014289322845     -1.55532143650981      0.45696112984696
  C           1.25447978953199     -1.88808500087458      1.17909887685618
  C           2.28069120599794     -0.58675844380328     -0.70119683529648
  H           3.26164040831061     -1.04857826558436      1.11725990818785
  C           1.09892786360128     -1.42367109878829      2.62081048028256
  C           3.17914589796176     -2.84703081163961     -0.09303048256606
  C           2.43662289817990     -3.45661512905170     -1.22699045561288
  C           3.01667746474107     -3.74624301698928     -2.37834635858116
  O           0.33872503363960     -2.44981245831902      0.65460466123417
  I           3.28556587226272     -4.28766805619215      1.55604497291735
  H           4.21697746230782     -2.65222092039118     -0.36885593291064
  H           1.38838366076659     -3.66028295945597     -1.05999480281096
  H           2.46088247906626     -4.18428617696569     -3.18775859894738
  H           4.06135865223839     -3.55050511790260     -2.55861785230498
  F           3.35677181114372     -0.48359860978232     -1.49260923379382
  F           1.25703621032327     -0.93457493208925     -1.47419542434723
  F           2.02661247523905      0.64516945868140     -0.24358111083893
  Br          0.29040687291887      0.36308067952829      2.40286958210770
  Br         -0.14553759806183     -2.59069317403740      3.52386648943573
  Br          2.69948864660255     -1.24820452983319      3.67716098714203
