18
Coordinates from ORCA-job NEB_reactant E -34.269693213270
  C           1.45561156072130     -0.03808718465236      0.00357534201492
  C           1.54164833508896      1.18389961541991      0.55087672974991
  C           1.42460256040571     -1.25735393456209      0.69407662513011
  H           1.39518830624632     -0.12469967034842     -1.07157929943450
  Br          1.54025714926377      2.70456565729928     -0.59303018164352
  C           3.98885931487130      0.49250011162640      4.00167083912907
  C           3.18831905083003      0.21277645936183      2.98714960351293
  C           1.77598311172941      0.70086589915569      2.89063305976900
  O           1.61046759092429      1.61276515962521      1.80238673127458
  C           5.40225792914933      0.02328332811491      4.11484799138340
  H           3.65279081785053      1.08512713307460      4.84128271640738
  H           3.54623080832417     -0.38498056640341      2.16072100822556
  H           1.50668412507196      1.28748860124000      3.77196257650223
  H           1.08157123435988     -0.13925234631005      2.78287428926084
  N           1.39149150543743     -2.28408410494957      1.20792041893252
  F           5.81058459125714     -0.66004029659085      3.00117873661763
  H           5.51924623686447     -0.65675503053538      4.96829521531765
  H           6.08500577160401      0.87398116943427      4.23505759785029
