18
Coordinates from ORCA-job NEB_product E -34.280043762340
  C           3.07874902265902      0.41298799139165      1.15795301005983
  C           1.94046285200371      1.32199850967305      0.77416542428425
  C           2.75566509290412     -0.92047539111234      0.68118762262420
  H           3.98107463872938      0.73888506401676      0.62271612590424
  Br          1.79999841648866      1.51741643760292     -1.17434519922003
  C           3.31239388989752      0.44151133041124      2.68927312065920
  C           2.25545675317872     -0.34846534938983      3.41220479141909
  C           1.37158902359993      0.18994705734511      4.22874596287338
  O           1.18403802432105      1.89266956305027      1.47492035247255
  C           4.70942251035588     -0.09300790071392      3.01965884261754
  H           3.27481359320262      1.48644285094636      3.01592655468101
  H           2.27010419006243     -1.41271590816214      3.22024826991216
  H           1.34400740626941      1.25007382865247      4.42028616608472
  H           0.63062063861420     -0.40742792303574      4.73000124239815
  N           2.48344674257770     -1.96165252431564      0.30429721846558
  F           4.87059754400037     -1.37186350282120      2.55895887702212
  H           4.85820707549502     -0.12163505293694      4.10372744803484
  H           5.49355258564024      0.51231091939791      2.54997416970715
