15
Coordinates from ORCA-job NEB E -26.402533750890
  C           1.24985931001342      0.69929843042150     -0.23193304305223
  C           0.81778226795571      0.30715778673590      1.02869627749535
  H           1.86885412180907     -0.00008759965021     -0.76771280681831
  H           1.51356291916344      1.73857611987697     -0.35035042086604
  O           0.51027635688950      1.26478554071190      1.92944133285425
  C          -0.39761028939422      0.33497494469146     -1.32650945288851
  C          -1.24185396939471     -0.44968495936802     -0.54659411962296
  C          -0.62402789731641     -1.54074126699188      0.11841367256287
  O           0.38446148879054     -0.88430850052256      1.26396498858710
  Br         -1.06612313195662      2.02417380256856     -1.92635179522737
  H           0.17740354870938     -0.12659476100082     -2.11688532119541
  H          -2.06183680075058      0.03990185726728     -0.03670749784340
  H           0.08416393011568     -2.12285831337965     -0.46388335150792
  H          -1.25156751639424     -2.15671101382400      0.74969316428728
  H           0.03665566176005      0.87211793246357      2.67671837323530
