15
Coordinates from ORCA-job NEB_product E -26.460457459790
  C           0.93656116681954     -0.70749540779666     -1.01952647999882
  C           1.68975157705010     -1.56588899484313     -0.01129263726059
  H           1.65599315002595     -0.03570979096495     -1.49970977071029
  H           0.19322801886343     -0.09532138291804     -0.49878201143127
  O           2.18167818858833     -0.88705527367875      1.03765067445713
  C           0.25560005761861     -1.58145314071420     -2.06388583051665
  C          -0.87662096385555     -2.36924079987234     -1.50886486251167
  C          -0.99808581452261     -3.67485210556497     -1.66021398083219
  O           1.85967092522920     -2.74262944768410     -0.12209505264839
  Br         -0.44279445180812     -0.38974445451080     -3.49797272054107
  H           0.98145967933188     -2.22898124578885     -2.55754276510669
  H          -1.62359215022183     -1.79602401793820     -0.97458780365367
  H          -0.26239833212017     -4.25416450026611     -2.19200678586693
  H          -1.82821583943212     -4.21626989805209     -1.24185649520460
  H           1.98806478843337      0.05943046059318      1.00978652182570
