15
Coordinates from ORCA-job NEB_reactant E -26.432992524560
  C           2.27217645859087     -0.20395375913822      0.28871288948410
  C           1.41166496643339     -1.17178447525582     -0.00517191033479
  H           2.41994700070032      0.61111280394117     -0.38922665753666
  H           2.83629160429304     -0.21493622891534      1.20133782417436
  O           1.15726970877102     -2.24741533081421      0.79437623877189
  C          -1.05039222687759     -2.85962632521588     -3.62389492467699
  C          -0.89697214511966     -1.95143859090416     -2.67854093227415
  C          -0.19256993565936     -2.22353221104972     -1.38892053567293
  O           0.70657502129805     -1.15151118328354     -1.15730798687426
  Br         -1.97972802223944     -2.50870142190618     -5.22880824428461
  H          -0.68574226870196     -3.87252089145784     -3.55862431825521
  H          -1.27144393167082     -0.94520495378614     -2.79631593261046
  H           0.34684116480007     -3.17805719828214     -1.42305945010249
  H          -0.92795728671230     -2.27377664199019     -0.57218858454261
  H           1.69783989209436     -2.18435359194179      1.58883252473482
