16
Coordinates from ORCA-job NEB_reactant E -30.019443193920
  C           2.28151323172954      0.59870412161900     -0.64397788564139
  C           1.51190747753450      1.65408714827289     -0.89382149882258
  Br          3.28781106481036      0.27226356344647      0.90947662921108
  H           2.34977327900309     -0.18658924576935     -1.37601967390835
  F           0.85651965169806      1.62228930054199     -2.07723772671733
  C           3.82910419753193      3.81235828658508     -0.75428810820664
  C           3.40989206995460      3.48587134920162      0.46768085443621
  C           1.96669563160774      3.27197034252337      0.81395300715916
  O           1.18362846460643      2.77792832956157     -0.27350048366967
  N           5.14674000893496      3.89193013768857     -1.13929386252500
  H           3.12176155849248      3.95783835638651     -1.56066296131352
  H           4.11355317897068      3.33299334478777      1.27124217128323
  H           1.46924968870754      4.21703827454621      1.06178946775909
  H           1.87599725248727      2.60487539035485      1.67781736803661
  H           5.81690495549380      3.93172024038694     -0.38668202074784
  H           5.35454828843703      4.50012105986649     -1.91377527633308
