16
Coordinates from ORCA-job NEB_product E -30.028828055030
  C           2.85326148791583      1.78240704553923     -1.20250486115193
  C           1.41378873119578      1.48446624050869     -0.92949731472716
  Br          3.81643537966312      0.29596277220435     -0.34137453269169
  H           3.08445390166086      1.69036174180657     -2.26594666241143
  F           0.92462264565659      0.61729514475894     -1.85874852398468
  C           3.31276438352601      3.14566336692778     -0.67245138723953
  C           3.17245531626905      3.26657421708621      0.82195366821285
  C           2.48392402344609      4.21860335115273      1.42107704365139
  O           0.71469677755613      1.86742192551734     -0.06257751066382
  N           4.67110815314413      3.36491287422457     -1.14858174334682
  H           2.67305159837871      3.89601208368173     -1.15788988768045
  H           3.73134421994578      2.54030363221492      1.39789798339557
  H           1.92515514476699      4.95283763901831      0.86433066336837
  H           2.43849833025079      4.29423772163289      2.49332132426179
  H           5.30925399250601      2.70973430630623     -0.70536000549205
  H           4.97928591411811      4.30180593741952     -0.91794825350041
