22
Coordinates from ORCA-job NEB E -58.914044426190
  C           0.71826484192800      0.49526229868535     -0.39684752111687
  C          -0.21695442002766      1.26960109879245      0.31748829918674
  C           0.49418879784235      0.39253981590622     -1.89502902404548
  H           1.77407006430286      0.67804419400801     -0.20248045093087
  C           0.18236252272383      2.08443287012084      1.49970178363178
  C           0.33262435293692     -1.25057392291290      0.24415469870123
  C          -1.03580068591328     -1.39248556885445      0.01685134427372
  C          -1.93829479061314     -0.41631659822319      0.57950187688814
  O          -1.49840790529684      1.00406068055827      0.21475114463607
  N           1.22615767006305     -2.20780404933739     -0.44365775702507
  H           0.71892511227223     -1.06242916412336      1.24483084297821
  H          -1.35267399398213     -1.99901533737724     -0.81996390799158
  H          -1.93063556177713     -0.38456775104744      1.67225380592876
  H          -2.95352094641252     -0.47372926229520      0.19746055968922
  F           1.36058866160475     -0.44294807838569     -2.47176132104785
  F          -0.72944474696078      0.00181221330823     -2.24820986024347
  F           0.69290025551993      1.59557510408283     -2.45316710920531
  Br          1.83659951822858      3.05698127631845      1.24924931222056
  Br         -1.24258220166552      3.30730169040342      1.95969493417590
  Br          0.43855666782664      0.85400800233234      3.10071224322226
  O           2.38057818782654     -2.16900939047533     -0.10242411501060
  O           0.74249859957334     -2.94074012148423     -1.26310977891550
