22
Coordinates from ORCA-job NEB E -50.453681116670
  C           0.25718317998608     -0.26797739506439     -0.88684614636877
  C           1.11249831361313      0.66076610429351     -0.24208739258622
  C          -0.68295293394806      0.25111720384041     -1.94516683886797
  H           0.76243525626440     -1.16316075756540     -1.25442060190389
  C           2.50266607744749      0.23230057869306      0.16704434746032
  C          -0.68490815744038     -0.85635187769662      0.63970468241815
  C          -1.13881477216292      0.29974605270782      1.30126926090457
  C          -0.18692513323427      1.28158167260891      1.69962433898851
  O           0.58859054934083      1.69074181515323      0.35418090088020
  N          -1.75135585686359     -1.77102959982520      0.22273097542099
  H           0.13950598553002     -1.43661732362648      1.04874423524086
  H          -2.17533760867619      0.57573857119153      1.17744466931006
  H           0.64206495301211      0.93550260686084      2.31445090927026
  H          -0.59799176863170      2.22068611709242      2.05074495779571
  Br         -1.91974006678808      1.62721036844650     -1.40570097484840
  Br          0.47381405219933      1.05557239356670     -3.34863756168478
  Br         -1.65996285262719     -1.18795337213767     -2.84364841687083
  F           2.62760119715286     -1.13257877777850      0.16362323937385
  H           2.73236649489923      0.58761514219978      1.17852472001712
  H           3.24918932033568      0.62798296976205     -0.53223913916045
  O          -1.46436817448743     -2.94096458321745      0.18257305008402
  O          -2.82555805492133     -1.28992790950507     -0.04191321487331
