22
Coordinates from ORCA-job NEB_product E -50.487563864010
  C           1.47532756614262     -1.03171101422871      1.78594716261722
  C           2.87116913997651     -1.72343388709195      1.69159653663146
  C           1.24114555984259     -0.10419890460753      0.59785165907045
  H           1.60640581040240     -0.35276276346210      2.64569784535908
  C           3.04707910252886     -2.97922996706457      0.85506204491888
  C           0.25869817023723     -1.91120523186110      2.12270600361956
  C          -0.23426836271482     -2.88257800081976      1.08649771368957
  C          -1.48679037254524     -2.88435683183829      0.66531463299217
  O           3.79079889721630     -1.19111555431105      2.23785415893076
  N           0.58080888654019     -2.72962767206623      3.33847317427581
  H          -0.58169561447439     -1.26926035576637      2.41558739526760
  H           0.47084875627241     -3.62147278806804      0.73903205042629
  H          -2.21040732941612     -2.16523605080214      1.01175595798245
  H          -1.82823464058087     -3.59945174840837     -0.06134814568485
  Br         -0.37853484733728      0.97789608945919      0.89869195467323
  Br          2.73656352897796      1.14927875380899      0.40336853352143
  Br          0.99085116707221     -0.99191950968528     -1.11706962189335
  F           4.36872898291427     -3.14058732456324      0.56726849069337
  H           2.51611635012657     -2.93745238844922     -0.10116941489253
  H           2.73896348577810     -3.85445660262092      1.43971824411766
  O           1.71458360985464     -3.12827109178547      3.44434396774731
  O          -0.32785784681415     -2.95624715576781      4.08671965593644
