22
Coordinates from ORCA-job NEB_reactant E -50.492586581750
  C           1.42011996251172     -0.50549846113009      0.05051560209959
  C           2.04448311357334     -1.57885509682027      0.55445419960253
  C           1.94774920829578      0.48643319676838     -0.90996903589702
  H           0.42185242225239     -0.27495073985557      0.39345433026080
  C           3.45545166877959     -2.02819738205419      0.26469604751620
  C          -1.14905701710397     -3.46081732915268      3.61873236806007
  C          -0.22854765178376     -3.46469303811832      2.66453941994411
  C           0.13441192929928     -2.29056735731824      1.82142362540876
  O           1.48212970086901     -2.44893182750856      1.42098577018089
  N          -1.44698465057704     -4.65784575278662      4.36021898039618
  H          -1.73939286861595     -2.60979351108452      3.92246646755651
  H           0.31142645605155     -4.38016881555063      2.45406921297204
  H          -0.00071343265441     -1.35228027699195      2.37481385037446
  H          -0.52163991042273     -2.27446236825249      0.93645665524110
  Br          0.43745256509768      1.46052078223199     -1.70377408182679
  Br          3.09397227669459      1.84709712896706     -0.02387018946234
  Br          2.94059852112801     -0.27364305661557     -2.41057235586457
  F           4.32260767556790     -0.97565060469033      0.22598921403167
  H           3.52170956575975     -2.54295020499801     -0.70143571482645
  H           3.78058492619294     -2.69723861981876      1.06700684470497
  O          -0.85287996789758     -5.67135075051073      4.07263130962242
  O          -2.28223449301810     -4.55525591470991      5.22916747990484
