23
Coordinates from ORCA-job NEB_reactant E -43.984546011380
  C           2.22915001949672      0.54985529993680      0.58327759032587
  C           2.57655514891253      0.97769590844661     -0.62164347240656
  C           0.93715874832270      0.90333241549924      1.24983521682686
  H           2.90453138583003     -0.08951863650341      1.12927276723908
  Br          4.29844249918818      0.45899288374223     -1.34399658417024
  C           3.95743245243161      2.84107751570792     -4.07967228148475
  C           2.91717440062118      2.27369813022057     -3.48977466017354
  C           2.33970606984954      2.74752730018112     -2.18999512659448
  O           1.77456522497665      1.68936965464166     -1.43314980997941
  C           4.54587861454655      2.42422876416063     -5.37673249262558
  H           4.47215152679132      3.67744018562836     -3.62705206834712
  H           2.40696048729762      1.43123178823097     -3.93475215267733
  H           1.49372665419612      3.41238561518209     -2.40046345029453
  H           3.08345871241702      3.29925265355216     -1.60346915397243
  C           1.17908372021953      1.47003318321718      2.64723726515028
  H           0.32576716025172      0.00018425324851      1.33065348987818
  H           0.39498284521932      1.62336251700764      0.63587299336094
  H           1.70869171524747      0.74869210978619      3.26516641748867
  H           0.23219976164721      1.70572496065857      3.12622885184860
  H           1.77443768531492      2.37853193619778      2.59290267489186
  Cl          4.49927139982843      3.80757479902915     -6.51311492465369
  Cl          6.25891566900844      1.97176504109129     -5.12513484780606
  Cl          3.71775809838521      1.06156172113678     -6.13479624182461
