23
Coordinates from ORCA-job NEB_product E -51.120967306460
  C           2.81802669832783     -1.83860450463511      0.15230574218279
  C           1.49934438155506     -2.30916135902268      0.72840766034781
  C           2.52250036405157     -0.58207885509032     -0.67894144935929
  H           3.50759088078743     -1.57324027612683      0.95759689681679
  C           1.31102164540522     -2.10601916207549      2.25019482613199
  C           3.48666271573736     -2.89710624450425     -0.75866594696171
  C           2.56649195840500     -3.41338300035941     -1.82995283127546
  C           2.72483925445869     -3.13299546137714     -3.10993909439965
  O           0.57280581267473     -2.69000874057797      0.07451151884066
  C           4.07106830003995     -4.06712042192683      0.02370024147468
  H           4.33762497934057     -2.39798346634857     -1.24328906475753
  H           1.74820164574961     -4.03632370664347     -1.49907251286935
  H           2.05069162279523     -3.51782122830214     -3.85412591891987
  H           3.53068543730117     -2.51219084662530     -3.46725470972603
  H           1.81414687430522     -0.81475173101448     -1.47007190778051
  H           3.44207709380287     -0.20848994001704     -1.12238739661436
  H           2.10220457442570      0.19541146790505     -0.04782464921852
  Cl          2.74250660246853     -2.43154810669861      3.23341509959565
  Cl          0.89784570022808     -0.37174806716302      2.39770804651565
  Cl         -0.03962743072236     -3.08554508384222      2.83347485021361
  Br          4.92137023132042     -5.31483393601423     -1.21829422858918
  Br          5.46168153844716     -3.47312742964710      1.26384622933281
  Br          2.73053911909493     -5.05862989989281      1.03305859901902
