23
Coordinates from ORCA-job NEB_reactant E -51.110440827420
  C           1.87825573039788     -0.17082592426081      0.09535163838623
  C           1.45236135950046     -1.42853414556825      0.19012918529314
  C           1.99205238662899      0.59039583925891     -1.17804737025529
  H           2.15150219569077      0.35484519285598      0.99769334624542
  C           1.34239550131672     -2.12243960835927      1.53278729676116
  C           4.04333163816870     -4.03841338025549     -0.72608528337867
  C           2.73686682506226     -3.92506863180614     -0.90274654525433
  C           2.10332344939777     -2.78825582586537     -1.64153500569541
  O           1.05971734663600     -2.17734283036816     -0.89148412360203
  C           4.72920065411080     -5.12242484823105      0.00792812324614
  H           4.72730008293933     -3.31055530829646     -1.14719241020084
  H           2.04137749433981     -4.64054895413323     -0.48636332805768
  H           1.60308887441137     -3.16887866415297     -2.53785778227469
  H           2.85882884884954     -2.04822675913847     -1.93157713635052
  H           1.52694501113686      0.05352345994266     -1.99999131944426
  H           3.04042500184308      0.77696055758806     -1.41151993297784
  H           1.50620550911664      1.55766087109977     -1.06503795426864
  Cl          2.97089450858393     -2.63731161815112      2.08430407960670
  Cl          0.68447028207124     -1.03327075749940      2.77359915917578
  Cl          0.30354720552322     -3.55143844466373      1.44458937100609
  Br          5.78691258028537     -6.19784536929848     -1.27387724488992
  Br          5.98575415578888     -4.34340361789270      1.30413223787902
  Br          3.55594335820039     -6.32670123280429      0.96660099905044
