21
Coordinates from ORCA-job NEB_reactant E -33.418059893170
  C           3.14528162125825      0.51113905416120     -0.02504629826718
  C           3.40788810602499      1.64034201960583     -0.66408705778865
  C           1.78466645200286      0.14700626693942      0.47818802702691
  H           3.96373764626863     -0.15711293535668      0.18818340168369
  F           4.67660556638198      1.89030930415267     -1.09341240165765
  C           1.53816545829575      2.64448644797595     -4.13911301412282
  C           2.60124897688555      2.58447489881632     -3.34891784695845
  C           2.74536504471952      3.40188858796783     -2.10467074838121
  O           2.53561976153665      2.62310353586283     -0.92030505995276
  O           1.34193356305695      1.92406653074762     -5.26183203076910
  H           0.71332981381644      3.31774837085612     -3.95408347057569
  H           3.40500914599126      1.89025077097870     -3.55992448754083
  H           1.97848246505997      4.17583672597330     -2.05319335048437
  H           3.73813720750244      3.86657670255742     -2.06357044527310
  C           1.72632605694396      0.20077179050102      2.00485535713686
  H           1.54107533018252     -0.86583420841463      0.14694420231923
  H           1.05251035657749      0.83720842448812      0.05836802035019
  H           2.45593784731903     -0.47953438928342      2.43833075984227
  H           0.73704935851296     -0.08284621994604      2.35564810006131
  H           1.94343980371144      1.20732269057398      2.35324733319006
  H           2.08619041795138      1.32499563084244     -5.40630898983870
