17
Coordinates from ORCA-job NEB_product E -34.466601807690
  C           2.84235368770700     -0.51182552354264      0.85421170528895
  C           1.44116411627022     -0.19335030041930      1.30519127705732
  C           2.86895600374845     -0.82212455144724     -0.64318453708141
  H           3.47277520489311      0.36570409182374      1.03960485757803
  F           1.46689550209485      0.42221655351152      2.52020901133939
  C           3.34707125278034     -1.67378402819558      1.73380535533321
  C           2.55635825993260     -2.92740881319605      1.55378558974884
  C           1.89701109494298     -3.51162600415096      2.53724368676505
  O           0.40899845450213     -0.42887525921023      0.79310848105887
  Cl          5.07043168399061     -2.01069463011214      1.32916282530095
  H           3.34282207680294     -1.36115536769606      2.78182877539718
  H           2.56884749955359     -3.35031033071477      0.56014504145346
  H           1.88509985605288     -3.10594134059019      3.53557752941106
  H           1.33612635503240     -4.41590046843040      2.38083386787697
  F           2.83249820527762      0.35317602440762     -1.34535241520977
  H           1.99404004077468     -1.40302082169092     -0.95006093739081
  H           3.79815070564358     -1.32897923034641     -0.91951011392730
