17
Coordinates from ORCA-job NEB_reactant E -34.447450583020
  C           1.80836282663589     -0.17188439694300     -0.39303825144479
  C           2.74819797008146     -0.92501491503352      0.16536266410883
  C           0.38871113619763     -0.61084265493025     -0.52213766998715
  H           2.08916148781840      0.77262171452420     -0.82697071491727
  F           4.01256697272399     -0.45825209944929      0.24683445983933
  C           3.29341047018166     -2.58388716896807      3.98007684364460
  C           3.63801114262217     -1.99535165518724      2.84740455884718
  C           3.57699060502875     -2.69289482678388      1.52048467630862
  O           2.56380181592532     -2.14245627230890      0.67977939356416
  Cl          3.35512893660212     -1.79064995240802      5.49821906342242
  H           2.96381605130420     -3.61043098199556      4.03837719297170
  H           3.95786729621567     -0.96329949274546      2.83166261677927
  H           3.29060160301055     -3.73889474533925      1.63969113311695
  H           4.55156738610240     -2.63419627568230      1.02068676678262
  F           0.06333563382283     -0.82153378324947     -1.84738839804052
  H          -0.30114992700975      0.16166580890009     -0.16407614540807
  H           0.21751859273670     -1.55629830240008     -0.00136818958787
