19
Coordinates from ORCA-job NEB_product E -33.662960920150
  C           1.99658008715222      2.36652794634971     -0.45518794822956
  C           0.60915429843959      2.61627149338227     -1.00231845593746
  N           1.90456526072186      1.21922372900988      0.42352236331783
  H           2.69660073696220      2.13113846186623     -1.26200829718637
  Cl          0.52762176328934      2.60836141373529     -2.75337523857296
  C           2.46619136074342      3.67620317162505      0.26080439947618
  C           3.79530387120506      3.42793164434265      0.90986447682024
  C           3.97048998505141      3.30312323872623      2.21234165790136
  O          -0.36474939561992      2.81996225880218     -0.35490318929280
  C           2.56519721989247      4.83469512912644     -0.73339367853748
  H           1.71760093895593      3.93970413484323      1.01552290415348
  H           4.62571258705530      3.33357434754735      0.22354372660389
  H           3.15164590011632      3.39355523000408      2.90819933229702
  H           4.94029890109188      3.11519421433975      2.63966063804399
  H           2.78575889143166      1.07359433682449      0.90434818466922
  H           1.17955226000665      1.36324204538571      1.11877179131151
  F           3.43107078864231      4.52486233270471     -1.75092650304764
  H           2.96005604043423      5.73184509421372     -0.24488100414451
  H           1.59734850442808      5.05538977717102     -1.19438515964594
