14
Coordinates from ORCA-job NEB E -30.898156633420
  C          -0.25338400700142     -1.12761276362760     -1.35601863492429
  C          -0.18282832285131     -1.58761205635761     -0.13640077229350
  Cl          0.21576109733885      0.12373146388552     -2.29932721570575
  H          -1.61139186372384     -1.55203854840761     -4.41760711124947
  F          -0.83876566213240     -2.71121273585019      0.19502002186027
  C          -0.89918364044425      1.30755890113436      0.99113255159691
  C           0.40356287007717      1.27453457512597      0.76672950166311
  C           1.24147234661956      0.03109584097013      0.86254980742173
  O           0.50718411474028     -1.16675827630233      0.95740763268209
  Cl         -1.81959736137410      2.74880088058207      0.86890505150634
  H          -1.48157177429943      0.44052831807236      1.26246140569796
  H           0.94835448902484      2.17058730382821      0.51023495726803
  H           1.83509897583771      0.05892226163683      1.78326279921596
  H           1.93528873818833     -0.01052516469010      0.01165000526061
