14
Coordinates from ORCA-job NEB_reactant E -31.101704725320
  C           1.19608007157157      0.57551097401869      0.00379666382277
  C           2.15930695895120      0.92948917226463      0.84876739767631
  Cl         -0.37533784894780      0.17942486974184      0.56500051615125
  H           1.36455370442073      0.50584244540960     -1.05531977031365
  F           3.37075872147091      1.25249133898514      0.34621566400915
  C           1.79039703689346      3.77970223311273      2.13128465475397
  C           2.83183117905796      3.22079955864982      2.72347054483089
  C           3.00318870842556      1.73979421886462      2.89800724087760
  O           2.05918958761148      0.96129756758946      2.17759627886188
  Cl          1.63688810040460      5.47836268462112      1.94562221027636
  H           0.95900432835733      3.22362339309573      1.72591356014263
  H           3.63604253101463      3.81971813383236      3.12325792834756
  H           2.84128736483069      1.46421699595060      3.94485375294499
  H           4.02610955593768      1.45642641386364      2.61873335761828
