26
Coordinates from ORCA-job NEB E -34.983154770360
  C           0.75497105142893     -0.12627349705316      0.00104199784338
  C          -0.62891058025285     -0.47235305591729      0.25639023788665
  C           0.98283169637812      1.24697714491765     -0.64741219229494
  H           1.34050399931114     -0.19177939221968      0.92074237165051
  C          -1.09318712514891     -1.00211806121270      1.57434164723038
  C           1.24085767771699     -1.27701314797701     -1.00449917503825
  C           0.38071552148127     -1.32397684422449     -2.13900011108215
  C          -1.02761693202979     -0.87134744362543     -2.04003201310285
  O          -1.50896542761690     -0.56759799701024     -0.74523716715173
  Br          3.23244660703618     -0.97321054377348     -1.58180460717032
  H           1.39146200085564     -2.17165292970122     -0.40567225808553
  H           0.79459092012373     -1.28863475670617     -3.13233896401724
  H          -1.70425179715398     -1.67507134686684     -2.36233011058099
  H          -1.21771012153450     -0.02190782251516     -2.71150472193046
  C           0.41936290038054      2.36627420703344      0.21798472694210
  H           0.51662174347045      1.27787061586990     -1.63302563956964
  H           2.05393884987000      1.40033983391721     -0.78071819924689
  H          -0.65511655708263      2.25056041094279      0.34546692251150
  H           0.61178181553517      3.32952678020165     -0.24810278501563
  H           0.88460423168487      2.36417849393682      1.20109807945530
  C          -1.05669680307822      0.04372548786532      2.69119629974536
  H          -0.44992788105603     -1.84314904005042      1.86121828714065
  H          -2.11124334186712     -1.37540449624583      1.45382773655245
  H          -0.04935379679412      0.42629095290021      2.83099286485644
  H          -1.38934203136206     -0.40080215128459      3.62550128868844
  H          -1.71236662029592      0.87654859879873      2.45187548378348
