26
Coordinates from ORCA-job NEB_reactant E -35.017704138740
  C           1.88057910721462     -0.27703206685793      0.12480793152831
  C           1.45518507829121     -1.52903525563780     -0.00162638404296
  C           1.87261677776123      0.77232379545990     -0.94269711139268
  H           2.27083980669144      0.03504826936242      1.08316032753211
  C           1.41405798430472     -2.51098518802952      1.13979649476600
  C           2.54102693980708     -4.76637653255024     -2.18929688239223
  C           2.71401528843696     -3.52851962155808     -1.76579296356384
  C           1.82647156800531     -2.39236094237699     -2.19005774306203
  O           0.90539354370447     -2.01485110624263     -1.18521710911151
  Br          3.64095307428418     -6.20280192332021     -1.63333179130960
  H           1.77526625996437     -5.06488140417715     -2.88741117121128
  H           3.49467795019663     -3.28604546331429     -1.05774979375434
  H           1.20618071240962     -2.68609176769373     -3.04100496212814
  H           2.45892110908248     -1.54129158208855     -2.47842179733766
  C           3.29056020208440      1.20670424148866     -1.31644801836616
  H           1.32788078017356      1.64259233270975     -0.56551559448240
  H           1.34264953725211      0.40632261467591     -1.82317148816132
  H           3.80815558881896      1.60040243786863     -0.44442592002086
  H           3.26181840129257      1.98101323230167     -2.07959112315130
  H           3.86517508345898      0.36571751578677     -1.70061609065282
  C          -0.02412949419281     -2.70006505508801      1.62324572187550
  H           2.03928328660441     -2.15113876450697      1.95764235326728
  H           1.80014902995518     -3.47589935313266      0.80222972714166
  H          -0.41706200963122     -1.76344806818809      2.01142602439902
  H          -0.06566703047091     -3.45092652522505      2.40868776399169
  H          -0.65249857549956     -3.02067381966581      0.79617959963953
