26
Coordinates from ORCA-job NEB_product E -35.039750007420
  C           2.03002522055325     -1.72812529270349     -0.46649577184039
  C           0.71777448859878     -2.19279893643697      0.17586967442477
  C           1.78778970231730     -0.30507707657867     -1.00355229785402
  H           2.83045271854550     -1.70831519271457      0.27918538143759
  C           0.76451773392318     -2.34730794470814      1.67418529570841
  C           2.38157155557814     -2.71268125286514     -1.57909001021088
  C           3.63897874926895     -2.42791389820445     -2.31396064745806
  C           3.71346553573880     -2.36645048088089     -3.63188001254799
  O          -0.26186755395674     -2.39735858060480     -0.49233764063231
  Br          2.60245468549374     -4.50872817805156     -0.73301390768171
  H           1.53214595432352     -2.83128913250911     -2.25507392447638
  H           4.52131258727931     -2.31447938059374     -1.69754827851948
  H           2.84485798431669     -2.49837113115359     -4.25624733194747
  H           4.64323800019797     -2.17428702456532     -4.13859026210280
  C           3.06549194723174      0.49510522696040     -1.21950270148961
  H           1.16207382668028      0.22519049289095     -0.28016401360150
  H           1.22224204984583     -0.36941910207489     -1.93483248003496
  H           3.64250263074015      0.55149034762959     -0.29865968067537
  H           2.81654295373053      1.50782194632548     -1.52729752687653
  H           3.68470149206446      0.04646711150450     -1.99114459889509
  C          -0.59356128741375     -2.69788775790916      2.26485882452072
  H           1.15073945892906     -1.41854108983981      2.10299418829889
  H           1.49028703244896     -3.13506000436483      1.89715168066312
  H          -1.31428546049378     -1.91369620609403      2.04631898329091
  H          -0.52003626422920     -2.81957261470914      3.34225584307996
  H          -0.95981574171270     -3.62371484774861      1.82947121542018
