18
Coordinates from ORCA-job NEB E -42.664266589850
  C           0.19733845314711      0.85950398739536     -0.30268855535872
  C          -0.32750107653776      0.45560293784280      1.06621808622350
  C           1.71693536480468      0.68466304549577     -0.38794630170829
  H           0.00747380184819      1.92439793125875     -0.46959567611057
  C          -0.64802395277120      1.47341683276359      1.96057065542558
  C          -0.53566423369208     -0.03474693325602     -1.28410212537267
  C          -1.12230547625159     -1.12949181722850     -0.48408593849499
  C          -0.43223294869118     -1.74343545946591      0.67782414726002
  O          -0.03015282661279     -0.76217962740927      1.58273999910091
  Br         -2.01267405943961      1.00379171636059     -2.14096561094267
  H           0.05383869664882     -0.36962430082574     -2.15028610379579
  H          -1.78559758978983     -1.79294865332847     -1.02434581343797
  H           0.41376820709155     -2.37624639266724      0.36212341950475
  H          -1.12409683640457     -2.39290556981981      1.22736920133696
  F           2.09503322284923     -0.60147171857844     -0.31695361848327
  F           2.18824947040939      1.14748498416188     -1.55403535842460
  F           2.35725874409641      1.33590936084849      0.58247850103802
  N          -1.01164696070474      2.31827967645221      2.65568109223981
