18
Coordinates from ORCA-job NEB_reactant E -42.714208889350
  C           1.69167931753876      0.06339426986495      0.03808884487631
  C           1.05444146446808     -1.12239381273679      0.03654560716217
  C           2.10086426978158      0.72120951164426     -1.23972443614231
  H           1.93201589430473      0.57892553134988      0.95051342648668
  C           0.69086884225930     -1.69600679117784      1.29326564171734
  C           0.17579181753248     -4.70201471025327     -2.82012541296609
  C          -0.14266390519323     -3.48471595747749     -2.41789742842072
  C           0.07432541892212     -3.00526801851074     -1.01809852833997
  O           0.76078396843248     -1.76141299301492     -1.10141820508466
  Br         -0.13346628600189     -5.30439287685037     -4.57578490337465
  H           0.61230263937657     -5.45399674631338     -2.18097077855038
  H          -0.56831274960394     -2.75806303819035     -3.09413033243362
  H           0.66020109130722     -3.72919750094142     -0.43759639910312
  H          -0.89586525076517     -2.85891324791991     -0.52014605804550
  F           2.97961110543286     -0.01226457936792     -1.94494351104752
  F           1.06313118642137      0.95361741010080     -2.06176675963208
  F           2.68413824610509      1.90518133169068     -1.01528583761906
  N           0.39525292968160     -2.16298778189617      2.29547507051720
