18
Coordinates from ORCA-job NEB_product E -42.706745196980
  C           1.27241284087090     -1.30104850645833     -0.61447711408762
  C           2.57116100769941     -1.69064671289262      0.11535215319465
  C           1.57040584554128     -0.29783673148477     -1.73307796309984
  H           0.61747373251566     -0.77341985638904      0.09282171501192
  C           2.29257866129567     -2.59838807988156      1.21889049906118
  C           0.55484161787394     -2.57849207766364     -1.08786286992570
  C          -0.48383937326748     -2.37121890879152     -2.13708173032197
  C          -1.76939205651919     -2.57080552155913     -1.91206767566015
  O           3.66414882465647     -1.29692614068332     -0.16097111564375
  Br          1.92240811486607     -3.86638311994795     -1.76890034228252
  H           0.12711340705588     -3.07842352396283     -0.21467590157212
  H          -0.12634696353356     -2.07239857358763     -3.11171303161345
  H          -2.14135948657943     -2.88515432676376     -0.95045161793320
  H          -2.50079211178301     -2.42099146711641     -2.68576097624195
  F           2.21994796901642     -0.82253333731153     -2.76748125391657
  F           0.43123170596907      0.23251323405779     -2.21563346074452
  F           2.28600915286030      0.73460088200296     -1.28010374897669
  N           2.05529711146161     -3.29164723156672      2.09669443475230
