23
Coordinates from ORCA-job NEB E -55.839827298090
  C           0.11613561382976     -0.58936695515827      0.85492301402162
  C          -1.23044862282455     -0.55344640838701      0.44635440412518
  C           0.38868792001404      0.07573194532339      2.19206589749419
  H           0.61673327395658     -1.54913323250473      0.76056555983633
  C          -1.79096359307067     -1.67438091855697     -0.42990705375044
  C           0.98647996420350      0.60767557589478     -0.38515460708097
  C          -0.02805155698708      1.26589423832443     -1.09807709933000
  C          -1.07301870560601      1.84404735587635     -0.33482942465728
  O          -1.85873142688088      0.57155820408343      0.35462130250852
  C           2.02495346168810     -0.14151841449637     -1.17460533818347
  H           1.46383354711606      1.19662781065878      0.39497699479837
  H          -0.28076684748392      0.90610100866337     -2.08872822262024
  H          -1.88286489047069      2.30762218822995     -0.88376511162200
  H          -0.78000220916681      2.41330140734626      0.54286002631785
  F           1.71165897375775      0.36910245016198      2.37348534017468
  H           0.11258141870593     -0.62151713302049      2.99105592213688
  H          -0.17102743664539      1.00868516280236      2.30629869688832
  F          -3.01602698545796     -2.03534009384522     -0.03239065768563
  F          -1.89862703548798     -1.29503940134809     -1.71429300378134
  F          -1.03204882873092     -2.77624311810300     -0.40273089796793
  Br          3.07215683123960      1.18231061650107     -2.19743556101891
  Br          3.28446463128597     -1.09731348139607     -0.03493658832044
  Br          1.26489250301553     -1.41535880704992     -2.44035359228330
