23
Coordinates from ORCA-job NEB_reactant E -55.881005076800
  C           2.12075277811182     -0.03211010650107     -0.50561308919807
  C           1.36740769246549      0.18128445018876     -1.58245937106898
  C           2.52815498454012      1.03268608172557      0.46760688672454
  H           2.48403688832788     -1.03040420330505     -0.31742248900904
  C           1.01182084722894     -0.98520030790447     -2.49724021812839
  C           3.88502499858418      1.64045805448713     -3.30600576409722
  C           2.60460170576296      1.90720871492255     -3.51052385357478
  C           1.70944607774959      2.39643418850467     -2.41337207319890
  O           0.81647849020598      1.34753986841618     -2.01288172279538
  C           4.81779185546479      1.04083207586627     -4.28338821593438
  H           4.34835922035179      1.84306792415822     -2.34675531109242
  H           2.11992763011140      1.69386376676784     -4.45344836952999
  H           1.04315719047347      3.18402791214845     -2.77048497750043
  H           2.29881925436933      2.76519178761640     -1.57033514456182
  F           3.69444441280019      1.64629455698612      0.05402657591262
  H           2.73694139376526      0.60186476789769      1.44982973479303
  H           1.76960723972730      1.81807517862753      0.54728932794785
  F          -0.22810482095062     -0.89434977915076     -2.97490742975907
  F           1.83631366345219     -1.02028810771799     -3.56269460634581
  F           1.12235167170136     -2.17252176819411     -1.89288318283627
  Br          6.39206031022415      2.20325095749312     -4.48900761715628
  Br          5.43329346301672     -0.69018892096013     -3.56199248723003
  Br          4.07431305251568      0.72598290792707     -6.04263660236080
