23
Coordinates from ORCA-job NEB_product E -55.885864530130
  C           2.65154231717794      0.27869860835485     -1.77843540970681
  C           1.33924344558148     -0.11116496515875     -2.42366326021681
  C           2.29868343230081      0.84262237908198     -0.38889753554739
  H           3.28937408327435     -0.60041086229904     -1.63542843819944
  C           1.13021791607126     -1.65088120758925     -2.53258406657516
  C           3.43924355363787      1.34967102537079     -2.57248530415809
  C           2.60172573273604      2.55364591869708     -2.90661033830676
  C           2.77896049855438      3.72870698872745     -2.33151212502817
  O           0.43777291054919      0.63565822976583     -2.67295839427425
  C           4.05404980021400      0.76699605998464     -3.83927532054468
  H           4.27236168211422      1.66705634772261     -1.92974094755048
  H           1.82859881399151      2.40996728290659     -3.64813099684084
  H           2.16481217446364      4.57378418909691     -2.58675555053000
  H           3.54155245180208      3.89350345509138     -1.58738336264014
  F           3.44733029096939      1.16296279282490      0.27537370152261
  H           1.77206376840430      0.09726164029701      0.21464979003440
  H           1.70342936083102      1.75633441617882     -0.48091481222946
  F           0.13042023895495     -1.97551406433331     -3.33833784391411
  F           2.22335031616858     -2.30443585806371     -2.94063816069969
  F           0.84237686823693     -2.11781610990400     -1.30300799717010
  Br          4.99211167476827      2.16846307094713     -4.81485462439778
  Br          5.35650744680877     -0.63557134658402     -3.43200020488637
  Br          2.69187122238902      0.00576200888409     -5.02680879814046
