19
Coordinates from ORCA-job NEB E -25.356995301290
  C           0.95228769192860      0.21277625998491     -0.55519830674224
  C           0.15717712269798      1.13933025079125      0.11274996301012
  C           0.57843505438694     -0.23146585802557     -1.94397292936347
  H           2.02194765401248      0.29044377489638     -0.38614545723385
  N           0.66708973365054      1.83110087176322      1.21250014531606
  C           0.36139688410090     -1.35529660607486      0.57133821142737
  C          -1.00970524861644     -1.35118330644066      0.41716180706932
  C          -1.70693848447752     -0.18264832400215      0.87770895494368
  O          -1.14984318046800      1.05354622537635      0.04410974256954
  H           0.93361047833769     -2.16421661551202      0.14109132071617
  H           0.77733722794191     -0.96484148780117      1.49045450639853
  H          -1.45165197680691     -1.91423299290937     -0.39177060348633
  H          -1.47903071969445      0.11612045543941      1.90045677630993
  H          -2.77062965873847     -0.14288570843461      0.66985798491275
  H          -0.50215892059881     -0.26260418594276     -2.04952307895920
  H           0.98894294857016     -1.21330006854178     -2.16648205742956
  H           0.97508632900687      0.47463618805355     -2.67506084274798
  H           0.03588588399515      2.51965246017740      1.59295880589867
  H           1.62076118077139      2.14506866720248      1.13776505739048
