21
Coordinates from ORCA-job NEB E -41.822689952860
  C           0.11776905982601     -1.15974168548606      0.50946415813882
  C          -1.11987180202420     -0.94206382962346     -0.13704987195569
  O           0.18042533355147     -1.11074141942886      1.85428679764263
  H           0.81980686665621     -1.87760547062034      0.10107759287045
  C          -1.31013494322154     -1.33560138874130     -1.58574172260086
  C           0.88215954530661      0.57998662583499     -0.08020978211437
  C           0.00330401880607      1.48957226286040      0.51747746904798
  C          -1.32222223196010      1.55341602731136      0.06301179872679
  O          -1.90925511320589     -0.06335869669912      0.37490544212110
  C           2.31016871072935      0.54090901403993      0.41062814440410
  H           0.83616322787933      0.42093491339721     -1.15151947937487
  H           0.22138669370162      1.80535614526285      1.52847626798990
  H          -1.49791906757955      1.55659063443631     -1.00562319328404
  H          -2.02755111691430      2.14960105516846      0.62267727693080
  H          -0.57460743473762     -0.59663314573896      2.18333904447987
  F          -0.14007241503264     -1.76311236822093     -2.15751187181927
  H          -1.67501337030587     -0.48543922351076     -2.17601079464547
  H          -2.02860612436835     -2.15974879743262     -1.66643896841461
  F           2.39868063185958      0.62094510984145      1.75610146433107
  F           2.93710303771531     -0.60196142732872      0.04545101430291
  H           2.89828649331849      1.37869566467820     -0.00679078677725
