21
Coordinates from ORCA-job NEB_reactant E -41.848837606120
  C           1.56705371853512      0.17936797493704     -0.10566998459401
  C           1.35563285723292      0.88380480257735     -1.21624896949730
  O           1.77984197074056      0.70523236397419      1.14907340749825
  H           1.56371397618945     -0.89762000419929     -0.18362117342501
  C           1.09410195092453      0.19873838284286     -2.53560041070824
  C           4.09118542374752      4.10431273829655     -0.19412712855928
  C           3.31425553883009      3.04437265966658     -0.33772900451292
  C           1.81992284702440      3.09342263638983     -0.40569010978845
  O           1.29571667523865      2.24168040639801     -1.40731453503773
  C           5.58413257251270      4.03278391100026     -0.09493587839269
  H           3.69657804773306      5.10579287760998     -0.10726059183968
  H           3.74769748951357      2.05661251100742     -0.41292630715633
  H           1.47367165928196      4.09345078971535     -0.67775345288791
  H           1.41223730394637      2.82613088756350      0.57639716989774
  H           2.07763450459151      0.00744725548380      1.73970305405042
  F           0.96807671641410     -1.15618917146716     -2.39991566967503
  H           1.92061889252952      0.37842934864564     -3.23349497441727
  H           0.16243917919885      0.57445405393982     -2.97258392678307
  F           6.01617603356938      4.59034268763445      1.06968915871324
  F           6.04268721608993      2.75918606077135     -0.09463179592107
  H           6.09322542615580      4.56974682721247     -0.91465887696366
