21
Coordinates from ORCA-job NEB_product E -41.853122477900
  C           3.08133369230155      1.00289156014486     -0.32543003963282
  C           1.68991711826032      0.76001697398158     -0.90786198016999
  O           3.16151697920345      0.48212555100477      0.96093830075695
  H           3.85186843930306      0.51167098006506     -0.92926644856902
  C           1.64556492634871      0.61671647523601     -2.41665319038901
  C           3.30989327228641      2.55483556369554     -0.37327940808308
  C           2.65239359541221      3.21981584643329      0.80053258267870
  C           1.54465405241122      3.93035745564947      0.71062567477763
  O           0.72878672781055      0.69248930242447     -0.19123822841847
  C           4.80823645725737      2.86258939375600     -0.40311024053433
  H           2.89643697703163      2.94632910556487     -1.30817713668749
  H           3.13820128275904      3.04792415008733      1.75075568025942
  H           1.04557446237355      4.09653938861933     -0.23007821070653
  H           1.08761074116924      4.37289049156330      1.57794698638313
  H           2.29169519180272      0.58204108565085      1.37825884986150
  F           0.39692047991115      0.85868593255054     -2.91056646098257
  H           1.90626579400069     -0.41837471243434     -2.67379604667183
  H           2.34036118094240      1.30190681626555     -2.91323090917583
  F           5.47719814560570      2.27926074237086      0.60766705479792
  F           5.35308802889940      2.38099106258873     -1.55307252767025
  H           5.01338245490962      3.94459683478193     -0.36686430182402
