20
Coordinates from ORCA-job NEB E -45.297145396460
  C           1.06328852510607      0.43138069233297      0.44657322302253
  C           0.36747986209182      0.74576332591054      1.61331798063362
  C           1.05010752400026      1.46583624458985     -0.66078798911826
  H           2.03050994323794     -0.04858960979466      0.55974916652401
  I           0.91874507957173     -0.32700298870365      3.39756040776829
  C          -0.17466471403931     -0.95891572765306     -0.19335799840383
  C          -1.41594319689857     -0.32705413677908     -0.18104026466383
  C          -1.90106395994968      0.14828282874372      1.07829062157233
  O          -0.82119986511623      1.21172158746581      1.57746763573927
  C           0.34693356402079     -1.46623694216074     -1.51426207451231
  H           0.05495268073665     -1.67314718937866      0.59369464959052
  H          -1.76765079392989      0.14755766964652     -1.08487012977920
  H          -1.89071223716203     -0.57019730170201      1.89750498871898
  H          -2.81657324476608      0.72716634593348      1.05101081992192
  F           1.94978836237203      2.45013184071213     -0.33612383485375
  H           0.07280863134306      1.94836619862447     -0.75703475906519
  H           1.38079583376372      1.05423221689386     -1.61735664628513
  F           0.00108113597129     -0.69703303931904     -2.55601307957058
  F           1.68317734592940     -1.56946807313633     -1.54183434389484
  F          -0.13186047628298     -2.69279394222614     -1.77248837334454
