20
Coordinates from ORCA-job NEB_reactant E -45.319410588900
  C           1.80336555697822     -0.02934797980591     -0.00460579306376
  C           1.41359465281093     -1.28811210527504      0.13647894402372
  C           1.95779707043367      0.64170023719674     -1.33473202408479
  H           2.05551562641040      0.57009891909994      0.85455954519158
  I           1.22170056601746     -2.08888069418687      2.11432085349312
  C          -0.42506529287457     -4.94846501116225     -2.29212494405639
  C           0.03421984285548     -3.71449973508281     -2.16992267470916
  C           0.07141226975624     -2.96338077160238     -0.88093098312200
  O           1.21181275307750     -2.12248750749904     -0.89140415140322
  C          -0.48952193115924     -5.66142994082039     -3.60655173383834
  H          -0.80189773186742     -5.52967771672000     -1.46402375378105
  H           0.41207939174153     -3.17300085564435     -3.02628203897422
  H           0.10847358212891     -3.65213067784747     -0.02685350834525
  H          -0.84157734549598     -2.35342763066905     -0.79434685762657
  F           3.07498843499364      1.43642450873203     -1.33160570398418
  H           1.10788227508267      1.30707756045233     -1.53892171468550
  H           2.07475348911245     -0.08255792009589     -2.14587075221146
  F          -0.00551887611733     -4.94276797966841     -4.62669277774607
  F           0.19881874073978     -6.81414690361821     -3.58396127717215
  F          -1.75383307462434     -5.98608779578297     -3.93222865390432
