18
Coordinates from ORCA-job NEB_product E -43.898284385380
  C           2.18620566027535      1.27815657892151      0.32118747179353
  C           1.24919562436918      0.78209917117638     -0.73608287245309
  N           1.91752510709421      0.51168951200425      1.60083533175464
  H           3.23096401653925      1.10651002200270      0.03093881220104
  N           1.92032779928408      0.71328348251766     -2.14666806332387
  C           1.93414313115755      2.79076338888723      0.54458805280582
  C           1.87358616767336      3.52057155335910     -0.76734779476111
  C           0.74229488148925      3.89089593050029     -1.33680287215021
  O           0.11223911516197      0.47700545909838     -0.65765692328343
  F           2.97409422255794      3.26705883566776      1.30151983543551
  H           1.01711304572688      2.91867209764874      1.13597497207782
  H           2.83691654105234      3.71724398543954     -1.21595521356472
  H           0.73254338739120      4.39881315112259     -2.28475581470612
  H          -0.21637326717018      3.69926224155204     -0.88288177897586
  O           2.68188234768339     -0.38113877495965      1.83030832876307
  O           0.96596375749263      0.84719643384069      2.24276690533097
  O           1.17023566007777      0.46773214667680     -3.04373588954112
  O           3.10364280214380      0.92578478454401     -2.19733248740286
