29
Coordinates from ORCA-job P E -43.087101117230
  C          -1.33028760444198     -0.18043774756312     -2.74874858155885
  C          -0.57043419967451     -1.55542637058248     -0.50697303215524
  C          -1.98312880514339     -1.69022136600069     -0.96997725544027
  C          -2.35979312915750     -1.01790318974432     -2.04669940943325
  C          -0.57363791983083      0.69863445379688     -1.72537934769468
  C          -0.17002803274377     -0.06473064827971     -0.44503459885297
  H          -2.66141698950975     -2.32037771500175     -0.41657297966313
  H          -3.36039357218537     -1.07470965461817     -2.45020880040759
  C          -1.92127826801281      0.72409741990395     -3.81694144038657
  H          -0.42582221928773     -2.00790340651013      0.47408495923615
  H          -0.60406112405263     -0.83766931599877     -3.24091865319847
  H           0.09073529685151     -2.06759273037275     -1.21193019644832
  H          -1.20865992396481      1.54361197458281     -1.44696591451749
  H          -0.71171375053178      0.37254070576079      0.40009258159184
  H           0.31089119997774      1.11183145144404     -2.21174239457432
  C           1.30762213577524      0.04636095785631     -0.16474129324457
  O          -1.45851039161285      0.85527094623951     -4.91242896969359
  O          -3.01179554889550      1.41125673193163     -3.43469658242148
  H          -3.27766859178745      1.18538179773909     -2.53174896355311
  C           1.75917172790533      0.51076880747589      1.06295962802497
  C           3.11401499652837      0.59644716751758      1.33315084669643
  C           4.03754936246713      0.21568213040608      0.37598290611595
  C           3.59807366343851     -0.25100446994796     -0.85138112526627
  C           2.24414216302503     -0.33575394970841     -1.11856350505963
  H           1.04368605360975      0.81066789180737      1.81595549700183
  H           3.44793877536098      0.96220487187981      2.29308888924951
  H           5.09498362137827      0.28243510526065      0.58427853077037
  H           4.31302903980659     -0.55029998099984     -1.60373016809228
  H           1.91580203470818     -0.70035186827428     -2.08129062702496
