29
Coordinates from ORCA-job TS E -42.988211548060
  C          -1.64904253109151      0.51596601832052     -1.53239377545493
  C          -0.31177411332538     -1.87376793040106     -0.70044403422776
  C          -1.61236947332620     -1.86740514848224     -1.07435468673752
  C          -2.27399364332759     -0.70574696268768     -1.52591675087223
  C          -1.29575626286378      0.79095715697206      0.61837307860674
  C          -0.43345711971593     -0.17353262841050      1.05258894242854
  H          -2.22683628614422     -2.73466434244134     -0.87157993664818
  H          -3.34438592858699     -0.78051749922024     -1.68055076408049
  C          -2.32415396218419      1.78651326178513     -1.88375060143580
  H           0.11760751771245     -2.74043445519855     -0.22628316985785
  H          -0.58094623863968      0.56289603522428     -1.67809112751324
  H           0.39281708559935     -1.15161599289273     -1.06672782149777
  H          -2.34003295638663      0.71380182218934      0.87380710061422
  H          -0.83013928021633     -1.02159077449350      1.59248418757869
  H          -0.94449335240622      1.78400025157711      0.39725252511970
  C           1.01525134327585     -0.02116406638066      1.09288420828468
  O          -1.73321662599424      2.73079081084730     -2.33596057758171
  O          -3.64786765863402      1.85851393429246     -1.64283629780558
  H          -3.98841340785618      1.03962117676244     -1.25922992671489
  C           1.68817924785081      0.97222766154436      0.37789743231826
  C           3.06319173436568      1.08451524902467      0.45166610478348
  C           3.79701684456705      0.21349591192374      1.24031600632083
  C           3.14366618561245     -0.77740131406487      1.95485934661049
  C           1.77017143292671     -0.89631485344172      1.87713818739571
  H           1.13714348120429      1.66063035399974     -0.24503451070542
  H           3.56665826325093      1.85739465411904     -0.11048122630406
  H           4.87132453438146      0.30581841905466      1.29692232417816
  H           3.70873740831174     -1.46085430951971      2.57191187299447
  H           1.26511376164030     -1.67213244000205      2.43553389020343
