19
Coordinates from ORCA-job NEB E -32.883701709650
  C           1.18806412130616      0.02404026696255     -0.58294093342158
  C           0.56743026327803      0.96508730134435     -1.41999202971053
  N           1.10697016959435     -1.33942255924032     -0.85987210790888
  H           2.10732519399452      0.31644706780144     -0.08938929348509
  I           1.17335974267359      3.03525593214890     -1.07157003986626
  C          -0.19469731507776      0.19944564842569      0.89753979780561
  C          -1.36397030616048     -0.10265790617281      0.20917080713031
  C          -1.84242429011854      0.79445069499761     -0.76116758245260
  O          -0.55827778178087      0.77522858164761     -1.93938004559098
  C           0.33392110322432     -0.76780292055916      1.92359372931056
  H          -0.00897318123675      1.23794931853624      1.15110898916747
  H          -1.66595305181473     -1.13890742757324      0.14573406212999
  H          -1.80532696803050      1.85551298545221     -0.54064431512957
  H          -2.68938541358454      0.50147123426582     -1.36433848334505
  H           1.99189395123403     -1.80265628601144     -0.99238263402539
  H           0.43355775998971     -1.56513711585892     -1.57881492342874
  F          -0.32961238128067     -0.57662854607490      3.11502333197160
  H           1.39542592064068     -0.60633182693648      2.13479152496313
  H           0.16067246314945     -1.80534444315517      1.62353014588599
