19
Coordinates from ORCA-job NEB_reactant E -32.908089400630
  C           1.98325787100772      0.19504257296672      0.13319287808235
  C           1.64366106076927      0.84060180422746      1.24928152300537
  N           1.96960142825502     -1.17850849249623      0.01040462341463
  H           2.36374928282487      0.73940867502909     -0.71618593179391
  I           1.91804450646215      2.96509713407372      1.33028855963176
  C          -0.52474935329634      0.39346281020276      5.32302679509071
  C          -0.27002226925571     -0.16779394848095      4.15376876088909
  C          -0.01672311797007      0.60262217272605      2.90003104936469
  O           1.26018136485791      0.22731066680953      2.39092106303036
  C          -0.78968331666618     -0.36171459306920      6.58464929301367
  H          -0.56895574575156      1.46775361308248      5.43725379377174
  H          -0.21507034884395     -1.24279987348896      4.06035631238706
  H          -0.03192720119977      1.68285964930887      3.09915496725294
  H          -0.79219676152925      0.37531493026298      2.15153481807496
  H           1.76614611516332     -1.54018520188377     -0.90744131135403
  H           1.50406413085440     -1.66265513208723      0.76397274659447
  F          -0.78798311451190     -1.71836980471621      6.38777755828040
  H          -1.77351738207680     -0.10236841440407      6.99601181751104
  H          -0.01787714909315     -0.14807856806305      7.33500068375267
