19
Coordinates from ORCA-job NEB_product E -32.924660721020
  C           1.43286946611318     -0.28654245983824      2.55968776435382
  C           1.08464692344620      0.48545545777803      1.30403050387983
  N           1.27974953367720     -1.70608961163905      2.37091549926446
  H           2.47846436879178     -0.07903629269395      2.81836273107702
  I           1.76169422239182      2.55210023426915      1.34793376568873
  C           0.53076810868589      0.21827914011062      3.71478578430277
  C          -0.92494437369093      0.08419652358834      3.36548243044376
  C          -1.70985707811332      1.10875177240331      3.09284371207842
  O           0.51946407881994      0.07791131268744      0.35173573532247
  C           0.86638464013175     -0.57535080829877      4.97904191097651
  H           0.75783001037198      1.27243043676168      3.90233845095978
  H          -1.31300037143257     -0.92537970872371      3.35708057912215
  H          -1.35058838157621      2.12496097781892      3.11220622323788
  H          -2.74840829627512      0.97651547283787      2.84445832767627
  H           1.93224714308758     -2.05923106587813      1.68072766244798
  H           0.34181129504307     -1.93016421103611      2.05696499134998
  F           0.17200046365726     -0.06731150899006      6.04530147888916
  H           1.92998955161236     -0.49615000980544      5.22493773808083
  H           0.58297869525813     -1.62604565135192      4.87396471084816
