23
Coordinates from ORCA-job NEB_reactant E -45.188342081890
  C           2.54596265591808      1.25899252176095     -0.91613715974307
  C           1.47371518427184      2.01586058869782     -1.12273837261733
  F           3.35532523100600      1.31681900204983      0.17248122649527
  H           2.87985146802293      0.51418454325936     -1.61812300577120
  C           0.64318532363048      1.82201841124663     -2.36445778077300
  C           3.32207947346534      4.51728917860070     -0.33296913516555
  C           2.84206106972557      4.02406387943236      0.79671327748898
  C           1.54591281963644      3.28401896589369      0.90705215423752
  O           0.93654993149815      2.98298481116678     -0.32669059884752
  C           4.62028089484006      5.24913637102995     -0.41652503164846
  H           2.81151034958440      4.42841498514774     -1.28000363483453
  H           3.38438635201857      4.13375142653649      1.72487415531663
  H           0.82212000477984      3.91894274639756      1.43167769387179
  H           1.69594325280155      2.37808583203818      1.50719385075489
  C          -0.57260847281704      0.94278062305314     -2.07072671053703
  H           1.24992217036744      1.36991250600897     -3.14777650238808
  H           0.30317558822433      2.80235028859778     -2.70043058294198
  H          -0.25641474476638     -0.04459875060875     -1.74362647108047
  H          -1.18169411718594      0.83520409087966     -2.96425174287767
  H          -1.17913757836986      1.39127384844426     -1.28858365718397
  F           5.25463354018480      5.35820252914830      0.75778437037257
  F           5.47983611810622      4.65684377035496     -1.26504526917070
  F           4.45600348505720      6.50526783086363     -0.87739107295707
