23
Coordinates from ORCA-job NEB_product E -45.196814699410
  C           2.45375809426888      2.45634994665354     -0.84684860470188
  C           1.08667967979940      2.54837325598054     -1.57418944806923
  F           2.47099903528067      1.24585425536279     -0.18463701221985
  H           3.27777963007488      2.41291717612358     -1.57121691708694
  C           0.93891415296645      1.55733060084805     -2.69124233055712
  C           2.65072880415190      3.60726077256035      0.15250072136396
  C           3.57995295493901      3.23110589731649      1.27475872227543
  C           3.23514087376091      3.28118940825870      2.54589896072055
  O           0.24762879607087      3.32815512833783     -1.22116024854348
  C           3.22871562377380      4.80183016455917     -0.59753467801458
  H           1.67258202576118      3.90974959195158      0.54481869420507
  H           4.56469856361012      2.90734710147405      0.96830606582568
  H           2.25429320683256      3.59851789310439      2.85835023767257
  H           3.92242582083569      3.00293906164706      3.32489207198129
  C          -0.46578674528210      1.55405675263270     -3.27805301399464
  H           1.20750658385795      0.57045487731902     -2.30447957805130
  H           1.67403963035793      1.81375272964732     -3.45967607998841
  H          -1.19109431406519      1.27834576674624     -2.51725238891679
  H          -0.53081207580693      0.84582939423575     -4.09929169219337
  H          -0.71974661611020      2.54509375428874     -3.64452997318429
  F           3.29455752475987      5.89343201434102      0.16928100574412
  F           4.47609495534756      4.56619695599769     -1.04153447364825
  F           2.51454379481481      5.13271750061340     -1.68486004061854
