22
Coordinates from ORCA-job NEB_reactant E -48.248308912280
  C           0.94373729722596     -0.49556960863394      0.29190199256326
  C           1.80928491676804      0.45017236539417      0.67470470177663
  C          -0.36145095763774     -0.74807985896135      0.94499847136934
  H           1.20840641799481     -1.10015572512201     -0.56362874761126
  N           3.03980243011118      0.61954314314426     -0.08009906754212
  C           4.61134431700313      3.02302970969274      2.69559681155540
  C           3.35400084499611      2.84128948828386      2.32718814407977
  C           2.57088601819472      1.60018289709250      2.62417870819824
  O           1.55477701478956      1.34223105672881      1.65744804624647
  C           5.35166387369475      4.29662211076610      2.44609861542539
  H           5.19816566454151      2.27395563755404      3.20501715632832
  H           2.80872066821945      3.61630286277662      1.80775147897305
  H           2.02247226536977      1.75284953172011      3.56244780411552
  H           3.23079689244680      0.73437378474975      2.74586140059257
  H          -0.48374744876847     -0.12204250779904      1.82384342629477
  H          -0.43675481774923     -1.79848614502638      1.22292476491411
  H          -1.16938599074795     -0.54039231738421      0.24418185943972
  O           3.64160468382543      1.66370162010706      0.06346922113708
  O           3.38259340166591     -0.29079000402931     -0.80404655075502
  F           4.63985042301505      5.21244988735602      1.78063732389263
  F           5.72657570656613      4.88108186194921      3.60519803182705
  F           6.48395637847508      4.10103020964098      1.75372640717909
