23
Coordinates from ORCA-job NEB E -57.266922169060
  C          -0.05963985442692     -0.24454427898074     -0.94161796197830
  C           0.40187194159490      1.10180074560516     -0.86618985311860
  C           0.83905335434170     -1.32750900695088     -1.49496718419401
  H          -1.05665809759383     -0.32363899201911     -1.36872096127169
  C           1.85471964550349      1.45820611776177     -0.62909121895078
  C          -0.53650652241190     -0.49280791495526      0.87360100748595
  C          -1.39902975828159      0.58708791126840      1.15546109652082
  C          -0.89259743664451      1.90279330943820      1.04993024882764
  O          -0.48745072485835      1.98222248920975     -0.54459316087298
  C          -1.19672225757306     -1.84423841116084      1.05376460128360
  H           0.45657838222828     -0.47903521696293      1.31259156512172
  H          -2.45991204018898      0.43134807856553      1.01749421030683
  H           0.06617589953990      2.10735070847177      1.51543096250435
  H          -1.60170368761704      2.71306306299524      1.15609596564501
  Cl          2.17857790792621     -1.75952077664051     -0.41886056611986
  Cl         -0.08040549460966     -2.79923044670542     -1.89417974015459
  Cl          1.53205345194278     -0.74366972476179     -3.05019561019726
  F           2.21399657667108      1.12934891110911      0.66753184980074
  H           1.98295355866298      2.54032297783286     -0.72279683179685
  H           2.53884403761128      0.92775811816703     -1.29193193341741
  F          -2.17678414135317     -2.06917165807042      0.16788778336304
  F          -0.34745257254753     -2.87110997462351      0.98479480279457
  F          -1.76996216791604     -1.92682602859343      2.26856092841804
