21
Coordinates from ORCA-job NEB E -41.647786380490
  C          -0.49189944547739      1.09078476287912     -0.18060362699611
  C          -1.67306370613171      0.85141083319154      0.50493652524515
  C          -0.45945780840107      1.02233146746478     -1.68936967620469
  H           0.14418827881181      1.88923614722011      0.18261321951277
  Cl         -1.72383481722608      1.57493510027629      2.13836844151323
  C           0.51995074420593     -0.65084805628683      0.44769741891220
  C          -0.43980249823038     -1.60540281038031      0.10484869894753
  C          -1.67625896503636     -1.63142272893917      0.75134264113024
  O          -2.45762697340377     -0.09166918511630      0.28159329958668
  O           1.68711241755421     -0.66192040193616     -0.21107524649384
  H           0.55386101339931     -0.27827038932664      1.47234408710193
  H          -0.32861376778113     -2.09038293404057     -0.85225527702412
  H          -1.71591550457246     -1.42593348365924      1.81374983030300
  H          -2.41991594928653     -2.32913066861235      0.39919439427795
  F           0.81141786147988      1.18276086138333     -2.13671745729323
  F          -0.90575977201913     -0.13407044995143     -2.21347956225637
  H          -1.05955535617402      1.83571365792405     -2.13749757889619
  C           2.70268978267363      0.20108221358392      0.25166068105114
  H           2.52668433178121      1.22585001689894     -0.08772331039163
  H           3.63233767158675     -0.16030992701189     -0.18310812994278
  H           2.77346246224730      0.18525597443882      1.34348062791716
