21
Coordinates from ORCA-job NEB_reactant E -41.682266961180
  C           1.67375704051014      0.19763784543058     -0.06693460755825
  C           1.69741702545616     -0.63646592239646      0.97459725176577
  C           1.50717074183280     -0.28409245160760     -1.46840575998659
  H           1.77213699904991      1.26060979244987      0.06703415058775
  Cl          1.92752376429883      0.01645486938096      2.56279244170726
  C           4.13569070147703     -2.50932089263772      3.03767850556605
  C           3.46901173750794     -2.85470860054201      1.94044870817080
  C           1.97595089080200     -2.84284631359775      1.86988734746021
  O           1.49883426273813     -1.94493744884285      0.85616978878837
  O           5.46433544856123     -2.46810241580542      3.23270197885986
  H           3.62046310176447     -2.23046766677767      3.94813305835360
  H           3.96876824747447     -3.12541921242746      1.02357778643583
  H           1.53728484590370     -2.58335944177650      2.83809385791092
  H           1.58775312069016     -3.81081498897040      1.54188402889095
  F           0.44618655316605      0.31298841721812     -2.07121972918248
  F           2.58679911692592      0.05258323676834     -2.22834495357161
  H           1.37010542635315     -1.37203979385332     -1.53829879676453
  C           6.30092545843925     -2.78887945643645      2.14321931049592
  H           7.32101485347125     -2.68315909190122      2.50711483707094
  H           6.13795399793356     -2.10480114254806      1.30522348546517
  H           6.13551666564385     -3.81725932112697      1.80854730953408
