21
Coordinates from ORCA-job NEB_product E -41.682886102850
  C           2.90771931981060     -0.61634190144176      1.03384592765190
  C           1.64016183743894     -0.07201763389327      1.62851925112861
  C           2.62703712988323     -0.93415360709077     -0.43703931376701
  H           3.70876571020390      0.12563128978221      1.09421511750881
  Cl          1.94380937634199      1.07565750341206      2.91935780629192
  C           3.33838828609774     -1.85695782173334      1.92249255556451
  C           2.92112881795058     -3.14861109264319      1.27448663749797
  C           1.86777177049991     -3.83931623569572      1.66788226416352
  O           0.53203158211507     -0.39054455508550      1.34695807724912
  O           4.68282878719395     -1.77458259172434      2.30099707965362
  H           2.81146246451846     -1.76062947265752      2.88034782598616
  H           3.53238562288739     -3.48949140870484      0.45203797120661
  H           1.24424928647764     -3.51268663808007      2.48343371723071
  H           1.58396320118446     -4.75853079796252      1.18533553675326
  F           2.37848878158424      0.21902033789216     -1.10101734238270
  F           3.69730583760844     -1.48331195974206     -1.05436589426340
  H           1.76548302124773     -1.60274650342661     -0.57571517176701
  C           5.67567125574767     -2.01664210218696      1.32290968319306
  H           6.61758762015742     -1.77057963812203      1.80945449164533
  H           5.55297355265988     -1.38647910278695      0.43961447133974
  H           5.69718673839076     -3.06608606810898      1.01764930811527
