18
Coordinates from ORCA-job NEB_product E -33.559574768410
  C           3.16479573676239      0.05861625605551      1.37868362582593
  C           1.66887061631507      0.13885335123665      1.16977583024791
  O           3.81279929621628     -0.16239497223601      0.17200213775216
  H           3.53060807322085      1.02709578862938      1.73926630979551
  I           0.65676057571106      1.11728288790807      2.82492824893025
  C           3.43458478931116     -1.02685679860271      2.46560683375413
  C           2.57787106636710     -2.24194065797356      2.23395688504466
  C           1.65710575307732     -2.66151311633555      3.08031282444415
  O           1.04548704717012     -0.27184806969032      0.25928238984970
  C           4.91982539741771     -1.40776605180436      2.47225218335766
  H           3.20189700357527     -0.59594402569796      3.44334827083658
  H           2.76714301868676     -2.78026566710756      1.31462666437806
  H           1.45569607503183     -2.14743087720051      4.00625903150513
  H           1.06203378857320     -3.53493897547892      2.87914527612810
  H           3.60435535191766     -1.04123112240030     -0.17010126187351
  F           5.23380780812924     -2.18848218906640      1.39064694137554
  H           5.15268874465043     -1.99958336447470      3.36274748701841
  H           5.56006985786656     -0.52195239576076      2.42066032162963
