19
Coordinates from ORCA-job NEB E -41.623661016730
  C           1.08314432224483      0.62156089743015     -0.23848489377263
  C           0.32706624324344      1.69908188992888      0.17915892809183
  C           0.98780144630474      0.16240842226694     -1.65712095746140
  H           2.07363989007759      0.47403772396113      0.16943233889240
  Br          1.02389852739966      2.50450456239063      1.86848626314524
  C          -0.12358415123444     -0.91772109893184      0.87675159186693
  C          -1.35047696631037     -0.54698338562176      0.30517238748415
  C          -1.97782054269336      0.62568454053571      0.65150653682205
  O          -0.82117066580808      1.98759254424957     -0.12978519926459
  N           0.44709816859988     -2.11064810940223      0.63106938840641
  H           0.17427628724178     -0.45831179308780      1.81208735007894
  H          -1.67753312764356     -1.08143245608910     -0.57532691545886
  H          -1.82410497119450      1.05773567881320      1.62902260130343
  H          -2.88252509033394      0.91788792794353      0.14659150367443
  F           1.80801666645532      0.86444654149389     -2.46478072862462
  F           1.38408342425571     -1.12679290808765     -1.78878925880449
  F          -0.22569358372705      0.22888163378767     -2.20637201796452
  H           0.22290608074805     -2.58524730205279     -0.23002500175581
  H           1.35097804237432     -2.31668530952812      1.02140608334109
