19
Coordinates from ORCA-job NEB_reactant E -41.644683427760
  C           1.72377414503762     -0.08659839278780     -0.03736785172476
  C           0.92873411833960     -0.47786403196278      0.96629448110425
  C           2.21720848471281     -1.07013703062421     -1.04110669738973
  H           2.03695875890980      0.93281372691821     -0.16335957612069
  Br          0.35323212533067      0.85395355361228      2.20856265167040
  C           0.07885427281979     -4.48071242319048      2.86661375812967
  C          -0.54712759875208     -3.57651077080156      2.11094534166488
  C          -0.30035275028637     -2.11494975614815      2.23546231024159
  O           0.53362680362492     -1.71373932954416      1.13130151936753
  N          -0.15707111154032     -5.82870425645667      2.83562904024596
  H           0.76994532290616     -4.16594802394188      3.63769712770286
  H          -1.22729426099648     -3.88366399055496      1.33203080339367
  H           0.21634113971334     -1.88386249931128      3.17389255664309
  H          -1.23723857914000     -1.54631552803447      2.18629724182055
  F           2.95093709073923     -2.06150552368724     -0.49810458924649
  F           1.22773455989290     -1.68143251006424     -1.72031733619968
  F           2.99769437383416     -0.48324732645444     -1.95848494150542
  H          -0.64392948119329     -6.17513703459059      2.02395225162987
  H           0.56987258604754     -6.43163885237556      3.18136190857246
