20
Coordinates from ORCA-job NEB E -49.690661825170
  C           0.88865995901252      0.38497536753996     -0.16953582586115
  C           0.04526390449029      0.45440525088793      0.97039758635846
  C           0.89223606553125      1.58455254606369     -1.09623758524713
  H           1.91826519537870      0.10139517274606      0.04717867102136
  C           0.50659625715986     -0.23762245803904      2.24217944252325
  C           0.15579755945246     -1.12286654765767     -1.02491300594544
  C          -1.21155362837518     -0.82287421753414     -1.14498234422493
  C          -1.95452598422358     -0.57549118192820      0.04654666421060
  O          -1.23187163451800      0.63647574504632      0.82616755074860
  Cl          1.02066668643831     -1.44466943238753     -2.50409783241783
  H           0.46020587013080     -1.84233129150550     -0.27093884436013
  H          -1.58319280624505     -0.45334925694421     -2.08701178472662
  H          -1.90204214994497     -1.34733496878547      0.81028972702556
  H          -2.96237861178642     -0.20440371658243     -0.09832039436005
  Cl         -0.67285826990621      2.02079474138941     -1.76819981650363
  Cl          1.44551849719619      2.97873169539936     -0.09146813243301
  Cl          2.06812260978176      1.42662146606902     -2.41363731862114
  F           0.38108498625471     -1.59825058440272      2.12660746980441
  F           1.81441380422029     -0.01251857713742      2.48115244112490
  H          -0.07840831004773      0.07376024776257      3.11882333188391
