20
Coordinates from ORCA-job NEB_product E -49.723066257560
  C           1.61558602530690     -1.65990656761416     -0.82416807302943
  C           0.86195133238423     -1.50847238657402      0.49750992723489
  C           1.49547693485900     -0.35488443139849     -1.61464257218389
  H           2.68173339472133     -1.81566289975443     -0.62888199058136
  C           1.75419813001156     -1.57974802516210      1.75678931234251
  C           1.07704397359298     -2.94008960505556     -1.51536899829022
  C          -0.18393076941194     -2.77469489015539     -2.29502030710617
  C          -1.34713131069104     -3.24793036361583     -1.88711207432213
  O          -0.31693395788526     -1.35007424329531      0.58916051381536
  Cl          2.35272058928118     -3.59900337291923     -2.59679016154229
  H           0.94186424479683     -3.69566439619763     -0.73514464959878
  H          -0.08454152828708     -2.27134214160640     -3.24509324130568
  H          -1.45793249983269     -3.75973706846867     -0.94589515728342
  H          -2.23954695809305     -3.12209643999733     -2.47387901868075
  Cl         -0.17431895287254      0.17511530473632     -1.86540710107225
  Cl          2.32050780381121      0.91638254767499     -0.64789823521344
  Cl          2.31387891179715     -0.46307221169683     -3.18056087400133
  F           1.05340506282618     -2.04761710114940      2.80400578908966
  F           2.80495053359777     -2.41175725525537      1.57956777751686
  H           2.14431904008728     -0.57874445249517      2.01152913421184
