34
Coordinates from ORCA-job R E -36.828522690260
  C          -1.58871610737290     -0.30557032556412     -3.21118214499257
  C          -0.31012152910910     -2.90959163111358     -2.30581293697134
  C          -1.40329776105259     -2.34433460306931     -1.80120236567260
  C          -2.00479221877964     -1.09121180878052     -2.21973780924377
  C          -0.74667313231771      1.85996332180198      0.30849197573720
  C          -0.20239248257370      0.65791522969078      0.29502742892110
  H          -1.91362029996461     -2.84304215491909     -0.98603592951600
  H          -2.87869137571906     -0.79007158580856     -1.65603191391521
  C          -2.22910395451024      0.98831411519127     -3.58766956299899
  H           0.06838450940155     -3.84373384213884     -1.92664953618257
  H          -0.72168490260676     -0.57568232321855     -3.79833385613491
  H           0.24726599556360     -2.46771624133314     -3.11461198038530
  H          -1.81276547347651      1.99523553940656      0.37897123101082
  H          -0.84295222821775     -0.21262339527031      0.34382353308079
  H          -0.16390100309585      2.76476555501530      0.25422294030015
  C           1.27293559623526      0.35862472669168      0.17266294081043
  C          -1.25962058498145      2.15390669367253     -3.38607713008593
  H          -3.12568858873754      1.15079934077600     -2.98624453707882
  H          -2.52612452687550      0.94975803268193     -4.64094366483790
  H          -0.98244735462701      2.22554104133079     -2.33645975591283
  H          -1.72331751684027      3.08971568641051     -3.69028855180226
  H          -0.35695215340625      2.00522718420558     -3.97461842431984
  C           2.09725898583054      1.25210224535697      1.10572639629550
  C           1.51899922636765     -1.10852547625648      0.53336925463167
  C           1.70076203522427      0.59823934548780     -1.28161266599103
  H           1.77246146413370      1.12411441021444      2.13636465672857
  H           1.99037435934183      2.30004374115596      0.84012124053750
  H           3.15152350208121      0.99110541483746      1.03934831186100
  H           1.21242350377406     -1.30528168910527      1.55886124930906
  H           2.57519327991342     -1.35184183379895      0.43892900764049
  H           0.95412644339586     -1.76112222278644     -0.12968478570232
  H           1.55951208735036      1.64233635858011     -1.55204136919811
  H           1.10232154165561     -0.01444962086248     -1.95125124840483
  H           2.75069066399552      0.34362077151803     -1.41489999751715
