20
Coordinates from ORCA-job NEB E -49.543139049350
  C           0.50759203009444      0.70647278763278     -0.64411828241802
  C          -0.37869327853501      1.05044201596684      0.40468063817595
  N          -0.00406801313017      0.96742580706727     -1.99608429960494
  H           1.52992614787136      1.07090929892510     -0.56259854600163
  C           0.27689486321389      1.49853872267047      1.71770594792366
  C           0.50719138022063     -1.22379593860474     -0.59442617809577
  C          -0.47371600929571     -1.61946245423540      0.33661000830359
  C          -1.76623322958899     -1.09032037596931      0.15039932511822
  O          -1.55230967141715      0.56574008885976      0.48478356056072
  C           1.86603986932117     -1.57141285660960     -0.32636273750652
  H           0.23166956101872     -1.34119593876388     -1.64096709730653
  H          -0.15346453682558     -1.88262183567729      1.33689752966856
  H          -2.52689249977962     -1.32358280956793      0.88321365991271
  H          -2.13490013095995     -1.00895871364836     -0.86724562032923
  O           0.66862629313558      1.71680967268041     -2.65461801609385
  O          -1.04494259151383      0.46046941387064     -2.33091600325837
  F           0.78173000256525      0.43292312682230      2.37450259507739
  F           1.29351318659160      2.33943172171472      1.51056762270053
  F          -0.58621166184897      2.08821601716039      2.53672832702103
  N           2.95824828886233     -1.83602775029420     -0.11875243384751
