20
Coordinates from ORCA-job NEB_reactant E -49.584324073340
  C           1.74435497068192     -0.15049717624529      0.07362191958628
  C           1.22541156448084     -1.19969247391254      0.74281043417945
  N           1.78290645375897     -0.06131883790244     -1.35168763718450
  H           2.17582473013512      0.69921061369372      0.57722846984626
  C           1.26514016068066     -1.14874378914277      2.27295174653614
  C           1.40633322872812     -5.60507937358156      0.19084087182200
  C           1.46477416814285     -4.39254954206579      0.73533367849575
  C           0.30186970716474     -3.44674305205560      0.75375341412933
  O           0.64172799155336     -2.21083026781280      0.12737496977453
  C           2.50492649421711     -6.48965260088666      0.20281359285092
  H           0.50911833244413     -5.98285647780933     -0.28208387508849
  H           2.37949283488183     -4.04108261913257      1.19346774642658
  H          -0.05658559084900     -3.30529902542453      1.77953477303043
  H          -0.51828469911968     -3.83363884175450      0.14350142361843
  O           2.30052744798521      0.93905501137740     -1.79912142429937
  O           1.31919492727631     -0.96250885671288     -2.01086999507570
  F           1.95722945446930     -2.16934240062982      2.79997859869303
  F           1.82461709576240     -0.03080772790475      2.72683636551940
  F           0.03097060359160     -1.20836661058519      2.79599835237282
  N           3.38895012401421     -7.21815595151211      0.20531657476670
