20
Coordinates from ORCA-job NEB E -49.692644351300
  C           0.79155419138360     -0.58764394935081      0.73622382990457
  C          -0.44094672152580     -0.32408568092698      1.37157531915341
  Cl          2.16505245890250      0.32636121170804      1.31301388501469
  H           1.06724979038856     -1.62138136362090      0.55462604232943
  C          -1.50915542553567     -1.38990288485972      1.42313953714658
  C           0.44113861138403      0.14216647278078     -0.97601010636165
  C           0.09823411234628      1.46511903456223     -0.67152968115246
  C          -1.05700507634489      1.68440855719780      0.14211762904928
  O          -0.82205187303419      0.91108138675345      1.51260565142424
  C           1.65541083940206     -0.10522732689685     -1.84920678545175
  H          -0.35918339896897     -0.54049826208963     -1.24841812294514
  H           0.87959605886467      2.21109266536016     -0.67730779586006
  H          -1.97573560515497      1.21862919752238     -0.20850401845896
  H          -1.21208319338465      2.70503273064735      0.47305708520761
  Cl         -2.39346990277661     -1.53908606585831     -0.15517907523223
  Cl         -0.82856139209615     -2.97848806130293      1.79438935189042
  Cl         -2.70564243349272     -0.95878965500504      2.65442706029743
  F           2.67783023464393      0.73149500028524     -1.58318457215531
  F           2.12684805116427     -1.36418459153483     -1.68843377384708
  H           1.40092067383472      0.01390158462857     -2.91740145995302
