20
Coordinates from ORCA-job NEB_reactant E -49.723316265010
  C           1.74705808701819     -0.03535474849731     -0.15437809233435
  C           1.52972713022582     -0.51583576442498     -1.37983113044231
  Cl          2.40976358845167      1.49847590711047      0.25577928829024
  H           1.48610816056559     -0.61799784295723      0.71234114006284
  C           0.91822071110319     -1.88656967653833     -1.57977359008992
  C           2.57539279964271      0.42764757683806     -5.17302106126408
  C           2.98523259763995      1.24719776834288     -4.22047689636475
  C           2.64492162579536      1.10561401884409     -2.77137170131645
  O           1.77667390025428     -0.00275273631376     -2.60151793538351
  C           2.93361774710321      0.59368182488693     -6.61752726035201
  H           1.96273714768274     -0.43451695196138     -4.96190939171459
  H           3.60782550426500      2.10055824101436     -4.45026368298450
  H           2.16295990541765      2.02783903681845     -2.42250268082638
  H           3.56911199462533      0.95933269714577     -2.19863170870259
  Cl          2.16907549495469     -2.95380978530730     -2.27959173353670
  Cl          0.30645227102884     -2.63330252400028     -0.10873587611796
  Cl         -0.42361737529988     -1.75703801597063     -2.73946367397089
  F           3.74187115737294      1.65945234517657     -6.83032318530276
  F           3.61390517949961     -0.49289936252888     -7.07073427272189
  H           2.04716237265311      0.71267799232251     -7.26456655492745
