20
Coordinates from ORCA-job NEB_product E -49.733048765080
  C           2.17361639670890     -0.30193707458256     -2.50683867957427
  C           0.88852525563473     -1.09138363975113     -2.65834865558397
  Cl          1.93269626797342      0.52501529779410     -0.93356421394485
  H           3.05490754486334     -0.93797839993291     -2.41069066478380
  C           0.97795915196184     -2.55815523603410     -2.20932799700042
  C           2.34165346124536      0.74580595288738     -3.61276463135195
  C           3.39179595073724      1.75808380655568     -3.24537990059082
  C           3.16734142963121      3.05615268588189     -3.19470499195649
  O          -0.12796536426597     -0.62738734196412     -3.07734450945750
  C           2.74876367426801      0.05126499765429     -4.91804363197683
  H           1.37674871576021      1.23403822360051     -3.78391854615373
  H           4.36633354613945      1.34611218084747     -3.02429384582457
  H           2.19783671753552      3.47528550492257     -3.40731142269624
  H           3.94321328894462      3.75210446707115     -2.92876213034147
  Cl          1.99909103135603     -3.37336668536043     -3.42409372639993
  Cl          1.73189462609369     -2.70815586644028     -0.61399924152752
  Cl         -0.62308832433981     -3.29557890171143     -2.18327340416279
  F           3.87810169933471     -0.67658698128666     -4.74697575223068
  F           1.80170316654376     -0.81928384832541     -5.33492911234514
  H           2.93017176387376      0.76985085817399     -5.73173494209702
