18
Coordinates from ORCA-job NEB E -38.094384640040
  C           1.05208300085048     -0.22566597463849     -0.28559014492336
  C           0.54534816169209      0.37587837661168     -1.45484258872099
  C           0.87858941862538     -1.69984969555606     -0.06092106559749
  H           2.06241900092982      0.06771667510917     -0.00940808116302
  H           1.10114806507608      1.24547395820912     -1.83145823671965
  C          -0.08671219662971      0.76002551382283      1.04699221635182
  C          -1.37671165352541      0.49722501050064      0.55851682195048
  C          -1.76515721087151      0.98144256631081     -0.68906893997631
  O          -0.64834338816949      0.20668702046544     -1.84078660449501
  O           0.21311915216764      0.27541611271096      2.27538134353484
  H           0.35662237889732      1.72597099573704      0.80891873495726
  H          -1.90004592976229     -0.33442867761358      1.00249543263057
  H          -1.48812943622239      1.98913474511049     -0.96874208125320
  H          -2.71619160485924      0.65783166312157     -1.08354174965287
  Cl          1.42125255446961     -2.20934439986780      1.55477032096109
  Cl         -0.73127845628050     -2.34001537416397     -0.35128465560885
  Cl          1.99117823550264     -2.52109844112330     -1.23688864359797
  H           1.09080990810948      0.54759992525346      2.56545792132266
