25
Coordinates from ORCA-job NEB E -36.843104772320
  C          -0.05126846722898     -0.82858893229727     -1.05549289001427
  C          -1.10427596402989      0.07321773669568     -1.26311787825510
  C          -0.31160313863039     -2.03501694206477     -0.37636367251617
  H           0.69149623380074     -0.89399207234086     -1.84178025368119
  O          -0.95877697357828      0.89566666467235     -2.33760203428463
  C           0.87595790857940      0.23131803859258      0.48917965185887
  C          -0.18399644520155      0.28822458778419      1.37899981079038
  C          -1.32018048273971      1.04685530894531      1.03769183671034
  O          -1.99586394721552      0.30259151719797     -0.38481105949207
  C           2.16670930279325     -0.49159565230835      0.77945988080832
  H           1.02475875915358      1.09734304650520     -0.15103031830519
  H          -0.30714672681449     -0.50759874663171      2.09656657877992
  H          -1.15852403037313      2.02862498988480      0.60754523330011
  H          -2.18040838111243      0.99550851516930      1.68921373698183
  N          -0.51496724137096     -3.02199072065643      0.17075119902394
  C          -1.94798606597924      1.89368385073266     -2.51054976888302
  H          -1.82938419564240      2.26065730289916     -3.52748787973740
  H          -1.80490482377730      2.71436879230249     -1.80279758328011
  H          -2.94735710009377      1.47569844424613     -2.37161136354432
  C           2.10924481498753     -1.51548535490167      1.90632668763462
  H           2.90350773126537      0.27760524841896      1.03829818790419
  H           2.53033451113742     -0.97511705140226     -0.13008016234591
  H           1.86183142185806     -1.03490101197522      2.84946967702541
  H           3.08082106426422     -1.99249314482814      2.01223866287412
  H           1.37198223594846     -2.28458441464005      1.69698372064733
