25
Coordinates from ORCA-job NEB_reactant E -36.874057479170
  C           1.09779252644191      0.24664734536423     -0.18404385026255
  C           1.62458638883166      1.08616602091414      0.73403244418991
  C           0.26328019392188     -0.81319371211161      0.18601447708239
  H           1.29104130266177      0.35692577307505     -1.23734743731653
  O           2.44842766136315      2.12413251273743      0.47486006211749
  C           4.43221267335095      2.28252395885645      3.02510798122985
  C           3.45713750371911      1.39189132897680      3.08819731743770
  C           2.00273327761721      1.73932723192137      2.98693846014982
  O           1.32402829970967      0.93048199212509      2.02704468794603
  C           5.90043718938613      2.01130458209568      3.12653756460261
  H           4.18101541331951      3.32920049254109      2.89842730863489
  H           3.65355931301901      0.33633745889011      3.20397747739322
  H           1.86882025249555      2.80074174398689      2.75205020382381
  H           1.48594987393552      1.50491413489345      3.92275756323344
  N          -0.41139352052300     -1.70577666431332      0.44561778502333
  C           2.84141229182016      2.36025206211300     -0.85683442262600
  H           3.51416906713768      3.21486653939458     -0.81509742276416
  H           1.98224980948630      2.60155234804842     -1.48916693201310
  H           3.37091021053057      1.49816312247192     -1.27200222815386
  C           6.27706481980287      0.54575029336116      3.29544727155189
  H           6.29318663688660      2.58746031081783      3.97069277589764
  H           6.38049406898100      2.40927004112586      2.22646258668333
  H           5.84608926903238      0.14107555333677      4.20777667618837
  H           7.35837540658387      0.44490267845254      3.35405242732803
  H           5.92462007048855     -0.04221714907494      2.45149722262245
