21
Coordinates from ORCA-job NEB_product E -47.072961461500
  C           2.63313061678180     -1.40055849315426     -1.30839371702376
  C           1.56891936071420     -1.76051340915745     -0.24185640924893
  N           2.84700943387205      0.09204544795200     -1.29363209805611
  H           3.59907734653867     -1.82630706688806     -1.01244025778153
  C           2.13002807156598     -1.77221166054648      1.16236354893906
  C           2.23198945937850     -1.90381556207607     -2.69673800985292
  C           0.91826564587889     -1.41448650369417     -3.23231996994198
  C           0.01866650631985     -2.22614991871035     -3.75441023632824
  O           0.43563483667313     -1.99772494681998     -0.52801491196459
  N           3.33945336591978     -1.56759954880119     -3.67793492056097
  H           2.21185484503799     -3.00149437439049     -2.66480026564562
  H           0.76401745950570     -0.34685954864195     -3.21376445389017
  H           0.15872850335824     -3.29368686899193     -3.79474064433832
  H          -0.90478549340693     -1.84925201665390     -4.15466403485797
  O           3.22524201333634      0.55140350284901     -0.24857096802469
  O           2.62962421698101      0.69509703782031     -2.30399420101039
  F           1.15641481360611     -2.05617694570215      2.06909386382061
  H           2.55242693766681     -0.78841858026952      1.40864771763026
  H           2.90657277344771     -2.54110439850174      1.25950819152160
  O           4.43752374990328     -1.40227752008210     -3.20766699353623
  O           3.04600553692088     -1.54440862553954     -4.83687122984914
