20
Coordinates from ORCA-job NEB E -45.328134100970
  C           0.43087083106610      1.02109967865814      0.13885237519232
  C           0.23918006442802      1.08251915149237      1.52629129821266
  C           1.66941382697681      0.44615422515594     -0.51736147915259
  H           0.16602294846683      1.93234133932685     -0.39682239577541
  C          -0.04454275583683      2.30461487265406      2.17811974671223
  C          -0.62695580462836     -1.25341145600261     -1.16034417208264
  C          -0.78755137634129     -0.54663532081698      0.00758082708774
  C          -0.27240233243442     -1.11770245762887      1.32058228634854
  O           0.02205131900585     -0.03777633347862      2.20130181249160
  N          -1.41945786283527     -0.96399086574488     -2.28499178096508
  H           0.12852308141152     -2.00549654775751     -1.32203899481581
  H          -1.71906551845991      0.01251497177816      0.06969094941317
  H           0.61393941166680     -1.73719179803912      1.16250729164652
  H          -1.03945106495584     -1.71560276904118      1.82211877939856
  F           2.59742249450208      1.43004404279476     -0.59903109010891
  F           2.25377291934103     -0.54781339634895      0.18268515884178
  H           1.47573600814064      0.08224172662600     -1.54036586480672
  N          -0.21744410284384      3.31459681760068      2.69287269398604
  O          -2.23881482007712     -0.06326674410063     -2.19899987712619
  O          -1.23124726659280     -1.63723913712762     -3.28264756449780
