20
Coordinates from ORCA-job NEB_product E -45.354245617160
  C           1.14393838799944     -2.01531794941826     -0.27020699502860
  C           2.13897761964267     -2.58720637437857      0.75450528148076
  C           1.83216187434124     -1.07458386956993     -1.27347634013711
  H           0.44919785771686     -1.38800966424073      0.30737940963172
  C           3.14433162711601     -1.63867904878993      1.19738234080182
  C           0.32776672189518     -3.15592744193899     -0.91537922142134
  C          -1.03972154751341     -2.70155537311459     -1.33348387622951
  C          -2.14636305056796     -3.12680903372390     -0.75490367089248
  O           2.06298833327793     -3.69976021330509      1.19324965464486
  N           1.05010585256692     -3.69658000599335     -2.11425864967117
  H           0.27079648767695     -3.98151080894244     -0.19475150548447
  H          -1.06436861945484     -2.00551797560595     -2.16009949809830
  H          -2.12984061875165     -3.83023536141866      0.06124509328886
  H          -3.11443448201145     -2.78265769379919     -1.07253606602220
  F           2.04199078821515      0.13158157195781     -0.69896845846343
  F           3.04369862993497     -1.55292456799874     -1.62990705184077
  H           1.24856671829542     -0.91403091960435     -2.19242841039956
  N           3.93521319939134     -0.90975275746361      1.58438621905271
  O           1.01743123358686     -3.02424379645827     -3.11546613243848
  O           1.59326298664238     -4.75827871619324     -1.98788212277332
