20
Coordinates from ORCA-job NEB_reactant E -45.360326567290
  C           1.79345728943257      0.01532774150069     -0.00484890755984
  C           1.28814998725704     -1.19578091869467      0.27597641836456
  C           2.05847346998646      0.48145411848256     -1.39962975858130
  H           2.03272865466980      0.70612635453101      0.78728666450949
  C           1.07472037327522     -1.54385557149056      1.64193838651582
  C          -0.62684219603747     -5.17492908142186     -1.59943074523936
  C           0.22327744195123     -4.16136657799770     -1.50692209778212
  C           0.43821426244083     -3.33547528722728     -0.28680885972049
  O           0.97905912305573     -2.08949806784695     -0.69254187198616
  N          -0.74254030818136     -5.93112527828280     -2.81782554442355
  H          -1.28194376866165     -5.51990826238692     -0.81407861783310
  H           0.82815692315326     -3.89823725455990     -2.36677781441243
  H           1.14479694391443     -3.85682803219211      0.37882361331055
  H          -0.50018979406559     -3.19263327142115      0.26572815619545
  F           1.39962125141750      1.64247112531623     -1.64560369892617
  F           3.37687502470451      0.76112058018444     -1.56634642521711
  H           1.76402363582068     -0.24912135177053     -2.16667710857037
  N           0.90435952609671     -1.83848094449635      2.73527931755883
  O          -0.03103183760160     -5.62879386327898     -3.74819555638046
  O          -1.55756600262829     -6.82516615694714     -2.81814554982224
