18
Coordinates from ORCA-job NEB_reactant E -36.728328904930
  C           1.91975571860938      0.21274742713151     -0.04641623788387
  C           1.73598791638771      1.45069099895795     -0.48467815007285
  H           2.28574408062045      0.01532133553405      0.94333993843640
  H           1.71030327613980     -0.64286385799444     -0.65900908382063
  C           1.21753488784222      1.81434050752153     -1.84179004810340
  C           1.87306653444027      4.50977479086372      2.92364679019430
  C           2.62646378977322      3.96388763204905      1.97751274325851
  C           2.45539960577175      2.55780234405630      1.50830799293111
  O           1.95635442059032      2.61047855111108      0.17628975625472
  O           1.96681154635519      5.76977058776815      3.38179743439466
  H           1.10486289888010      3.95718289838621      3.44660072637041
  H           3.37777875869869      4.54470106066506      1.46076251483356
  H           1.74472100220733      2.01853114633787      2.14612915337670
  H           3.41724191226671      2.02644384972526      1.50680878968144
  Br          0.92764714071853      0.32734572292503     -3.02953755777608
  Br         -0.48121308952068      2.76987269123281     -1.62430294784071
  Br          2.48516678937238      3.03547909802593     -2.69113934624742
  H           2.64007281084663      6.25789321570296      2.88927753201315
