18
Coordinates from ORCA-job NEB_product E -36.727248577120
  C           1.52708763600657      1.70364192722466      0.52787189798990
  C           1.98052312218368      2.25424269142182     -0.79308968440583
  H           2.14012581230128      0.83962241023877      0.78698213479263
  H           0.47554639239515      1.41926855578710      0.51019603485274
  C           0.87908847417859      2.52552459376531     -1.81253478048690
  C           1.75207479071573      2.82083853437920      1.57620660880535
  C           3.20255810714350      2.91369826356200      1.95873890182707
  C           3.64765091268552      2.70176153464646      3.18227527466981
  O           3.11864884840844      2.45661253429226     -1.10116550546300
  O           1.29851301264511      4.01634143373134      0.96401689975664
  H           1.14370490773097      2.59482167680512      2.46554932954107
  H           3.86899552824215      3.18411618918666      1.15204559922447
  H           2.98569875372758      2.43455761649362      3.99064526684894
  H           4.69273404758757      2.78014371792196      3.42575885917546
  Br          0.39738079478936      0.72644430307398     -2.44482066636461
  Br         -0.69916678395223      3.37612595154362     -1.12116252437990
  Br          1.57922211057122      3.55022462319636     -3.28572597321019
  H           1.39321353263980      4.75251344272977      1.57771232682638
