20
Coordinates from ORCA-job NEB_reactant E -50.459534381380
  C           2.61832383234031      1.26158755360759     -0.45900650214944
  C           1.46116626126384      1.84401207018866     -0.14910713575531
  F           3.59413581257650      1.01336156130320      0.42444406138342
  H           2.86956356649377      0.93921298572244     -1.45627682300516
  C           0.44598238382836      2.08409883761749     -1.24922089967523
  C           2.98367127472886      4.31529982189065      1.14205714985211
  C           2.91850382397270      3.36236805762767      2.05645648860898
  C           1.81618748516556      2.35307303432131      2.15523734812037
  O           0.96749012460560      2.31270404876716      1.01901809610788
  C           4.10378894195512      5.30618215782329      1.05714012038704
  H           2.23711391836826      4.44023836568483      0.37096051651210
  H           3.68555584274270      3.26783895530516      2.81135445172766
  H           1.14671981292114      2.62023222136709      2.97967328875931
  H           2.23588268620240      1.36248656624173      2.36258354197940
  F          -0.75079300154832      1.57789164828952     -0.94544917840351
  F           0.27042560528966      3.39574705384519     -1.46356348317824
  F           0.81011881382710      1.54928735291441     -2.41915877394044
  F           5.03180813533063      5.12048005979997      2.02347155912737
  F           4.75778150823832      5.18107494564450     -0.12873179639481
  H           3.75227317169748      6.35012270203812      1.12461796993651
