19
Coordinates from ORCA-job NEB_reactant E -33.386084890810
  C           1.13669154971533     -0.08431394795559     -0.25100531700642
  C           1.00468310348186     -1.05670298230368      0.64709771747539
  O           1.57256013580746     -0.33065568762844     -1.51444454683866
  H           0.89972389513088      0.94026444830080      0.00476352615931
  I           0.19394679202509     -0.50483643755905      2.55837160094379
  C          -0.71841651969675     -3.87026829745225     -1.60918757243460
  C          -0.68719849299027     -3.14060168117151     -0.50193419846609
  C           0.34618949516467     -3.31766529632965      0.56175358170304
  O           1.37868198282148     -2.32830597598913      0.49473720976677
  O          -1.60485839085579     -3.74786285159624     -2.61597822981125
  H          -0.01796107079590     -4.67196910805299     -1.79432718466956
  H          -1.39759833479737     -2.33620542115779     -0.35483770586095
  H           0.87190601703629     -4.26654372266200      0.44888318505847
  H          -0.11712918549117     -3.27201969723891      1.55844647775093
  C           1.89052172024205      0.81262687645098     -2.27304985428506
  H           2.13607663344276      0.45513685698542     -3.27106129586599
  H           2.75335931085429      1.34022386267093     -1.85365194256789
  H           1.04153449245567      1.50221559138704     -2.33057112569884
  H          -2.21341313355058     -3.01891652869795     -2.43690432535239
