19
Coordinates from ORCA-job NEB_product E -33.388613749910
  C           0.45314913651467     -0.90488199837038     -1.02225474074822
  C           1.17171823281001     -0.95729203458606      0.30890710477537
  O           1.37468375340681     -0.74351874323707     -2.05884755200533
  H          -0.30371813065700     -0.10688712307158     -1.02551526368586
  I           0.04749735350341     -0.01601389156911      1.91686466630485
  C          -0.27021048853756     -2.25759465204996     -1.25706734842578
  C          -0.78297905856700     -2.85864721555292      0.02513653168600
  C          -0.19933701434187     -3.86133458572471      0.65383045530325
  O           2.22943384098188     -1.41998242528687      0.53705648859755
  O          -1.31900085025573     -1.97569191679525     -2.15331627113790
  H           0.47705038343491     -2.92095941629445     -1.71762179879923
  H          -1.69983092452983     -2.41731432837231      0.39284044438191
  H           0.71110018198667     -4.30744210131007      0.28750840498737
  H          -0.59759732394671     -4.26350191316608      1.56918080626994
  C           1.87824741162202      0.56797552384643     -2.18509538657742
  H           2.51532066657664      0.56118628411999     -3.06631405941594
  H           2.47195550574323      0.85873876213585     -1.31129196093692
  H           1.06516602198699      1.28931659354435     -2.32420794606981
  H          -1.74574869773154     -2.80095481825978     -2.40779257450380
