24
Coordinates from ORCA-job NEB E -44.948282405380
  C           0.40325914251653     -0.47293403088875     -0.09389716280578
  C          -0.66325048125673     -0.23757751857172     -1.12592007902999
  O          -0.15717485627160     -0.62953860647152      1.19259561979505
  H           0.99811836525637     -1.35862911683387     -0.35670515123859
  C          -0.99363959118653     -1.24790121137611     -2.17068476547290
  C           1.26337249122510      0.81074389730820     -0.09333040201231
  C           0.31671160197052      1.92045454659010     -0.39388799590974
  C          -1.14515579934419      1.73659578129745     -0.15192933740323
  O          -1.65237425006188      0.63093525868866     -0.84149920118085
  C           2.07637839595310      1.05349312464397      1.19562626251749
  H           2.01055959769024      0.69701220161668     -0.88723117078098
  H           0.67486655428303      2.90938200429802     -0.13198029820468
  H          -1.72645302370372      2.59753781227392     -0.49046091373544
  H          -1.31032387326361      1.61108613514721      0.92965059029988
  C          -0.81390410440917     -1.85663592793705      1.39683941936829
  H          -0.15882847982659     -2.69989229518529      1.15351200446183
  H          -1.72804382628201     -1.93536070974799      0.79901348267116
  H          -1.06759630909765     -1.88272282286078      2.45461933912486
  F          -0.85556148918038     -2.54455658441366     -1.71191474261936
  H          -0.31290280078427     -1.16828664671020     -3.02956385720710
  H          -2.02964581168413     -1.12472211668832     -2.50190399228635
  F           1.28986975269726      1.33261245217244      2.25747564499815
  F           2.80697948973790     -0.03988026829856      1.52418317045350
  H           2.77473930502243      1.89878464194714      1.07739353619708
