24
Coordinates from ORCA-job NEB_reactant E -45.012885246780
  C           1.40530994917784      0.43420147381699      0.03223023558896
  C           1.25789298575437      1.19376140544491     -1.05186755111102
  O           1.36244643641721      0.86961927702281      1.33060951631980
  H           1.54173575342481     -0.63130932550298     -0.10418825380039
  C           1.22719491008664      0.59182260945161     -2.43488953257266
  C           3.41851721949214      3.20429181268471      1.48363328325432
  C           2.91256949985799      3.24315252825338      0.26341136973144
  C           1.44844919314848      3.34393151902601     -0.03780042598167
  O           1.08239194681382      2.55441692531462     -1.15143326369912
  C           4.88258592950483      3.08686194457524      1.77579179236229
  H           2.79505980034116      3.22586784911765      2.36470420915787
  H           3.55833330002547      3.19619000223765     -0.60367131913461
  H           1.20770539946027      4.36798854158944     -0.34537461294325
  H           0.85516165078045      3.08028013046043      0.84338241088773
  C           2.01868775252488      0.02763095485830      2.25174381679492
  H           3.10519579549494      0.07300815581784      2.12677058720995
  H           1.68787044836025     -1.01027034813638      2.14432139917292
  H           1.75450586571045      0.39117795080247      3.24321111412965
  F           1.10334105766432     -0.76961808568878     -2.40249466832801
  H           2.15236437867360      0.81653728424414     -2.97983968560613
  H           0.37175773471925      0.98883659888909     -2.99231584293404
  F           5.13709441114814      1.94002944147959      2.46820483272551
  F           5.63286549044225      3.01787291745556      0.65208849342291
  H           5.26936309097643      3.92111843678569      2.38617209535263
