23
Coordinates from ORCA-job NEB E -36.486761872900
  C          -0.12261022604885     -0.94226444650939      0.66703087371863
  C          -1.49816865224778     -0.45401271235110      0.74551450478660
  Cl          0.83319313248611     -0.15376776030701      2.07049790431019
  H          -0.08886523200337     -1.99757664250887      0.93961449391506
  C          -2.38412613457739     -1.03665211578855      1.80383840540072
  C           0.51751094732936     -0.69857371870560     -0.70134472768684
  C          -0.39404449039177      0.21196630139536     -1.43718847281297
  C          -1.17607595002702      1.25983993143655     -0.74796613115086
  O          -1.88330013496625      0.78419682115178      0.35841993512719
  C           2.00903733697181     -0.25967720637036     -0.71964576549163
  H           0.50601288221298     -1.67264834455373     -1.21058810462837
  H          -0.14513916275123      0.41514124325726     -2.46795927523034
  H          -1.92314011109267      1.70529974823474     -1.41367924593677
  H          -0.51213308227308      2.07246599819280     -0.41250644821850
  F          -2.67515189549183     -2.35425580724368      1.50654396900186
  H          -3.33312642764526     -0.49690024643385      1.84993159543780
  H          -1.90412649591692     -1.05561047195599      2.79234057920505
  C           2.24967421666918      1.23290259477099     -0.53066829362942
  H           2.42174636138129     -0.55466780655965     -1.68649242929514
  H           2.53741733026373     -0.81904279255318      0.05314475473726
  H           1.80716048442595      1.80119593878607     -1.34596965844470
  H           3.31987939042140      1.42777587386440     -0.52351280441660
  H           1.83837591327163      1.58486562075102      0.41064434130180
