20
Coordinates from ORCA-job NEB E -41.249349295310
  C           0.64020234054727     -1.08980152247758     -0.27040577090593
  C          -0.59810720657931     -1.37504837409843      0.34603603771979
  Cl          2.08337264055208     -1.37652035980727      0.67204165177125
  H           0.78596812644284     -1.39784765884313     -1.29906484910428
  C          -1.79924072042180     -1.64237852559923     -0.51700514032694
  C           0.47499364239636      0.81103881558011     -0.32375798201968
  C           0.33447637519954      1.14508052325315      1.03556387498560
  C          -0.80727956855795      0.65185411694679      1.71089693635493
  O          -0.77380162686740     -0.99364851104328      1.56829835508975
  C           1.61857571796203      1.40919171069713     -1.10105686603867
  H          -0.42744762116844      0.84963822356584     -0.93118708760003
  H           1.22387418623682      1.35775129708104      1.60767326211514
  H          -1.77081920270136      0.83349125209485      1.24142239959572
  H          -0.83181399647682      0.78765878610460      2.78419913836837
  H          -2.39434106336343     -0.73095201388192     -0.61629023728335
  H          -2.42873279197157     -2.38863032854071     -0.03762243794562
  H          -1.51030108997226     -1.99131291462828     -1.50258907290088
  Cl          1.15942920278856      3.10661806215077     -1.47901814330831
  Cl          3.15306727702531      1.45033936580157     -0.23194090711706
  Cl          1.86792537892953      0.58347805564398     -2.65619316144981
