20
Coordinates from ORCA-job NEB_reactant E -41.289431975510
  C           2.53388852527843      0.97029257304477     -0.93186611281764
  C           1.34488165263083      1.56802392336877     -0.90218943584048
  Cl          3.97696527561007      1.37870103858505     -0.06015278781284
  H           2.68426677644746      0.11700605644248     -1.57018659752661
  C           0.22156985667256      1.03913183877925     -1.75180187945089
  C           2.84814712242146      4.34727444123668     -1.35538927807251
  C           2.84808824773336      4.11972977011979     -0.05101218352196
  C           1.76899677756964      3.35795424752762      0.65660002382761
  O           0.90384217789597      2.64150242681177     -0.19456648257663
  C           3.90853736557384      5.05627994163705     -2.11063396509434
  H           2.04710144660139      3.98381078251780     -1.98405605868723
  H           3.64171899222977      4.48319597191930      0.58417008046474
  H           1.11415105943721      4.06787892714358      1.17656116512834
  H           2.21565535362503      2.69726482400699      1.40821369700259
  H          -0.12375381938779      1.82083209234666     -2.42510984401490
  H          -0.61326646614441      0.76068674899710     -1.11235739114393
  H           0.53653358376196      0.17833919867590     -2.32997591329304
  Cl          3.18431813346423      6.39930322432449     -3.04395133567022
  Cl          5.19296214100549      5.71977367381995     -1.09500150822133
  Cl          4.65199579757350      3.91601829869500     -3.27679419267873
