20
Coordinates from ORCA-job P E -37.840313247870
  C          -1.36470711451474      0.48955221348076     -2.23375679942427
  C          -0.06685556661104     -1.69419727283935     -1.13507467501505
  C          -1.42048748173848     -1.89133401279600     -1.74115701381355
  C          -2.03292088005567     -0.85426824622275     -2.28857799709113
  C          -0.88939272833951      0.72535204776904     -0.78227822530102
  C          -0.03523872982549     -0.43455983215328     -0.24209186359090
  H          -1.84905977817628     -2.88030795292886     -1.73311864534726
  H          -3.00288834085117     -0.91729559207264     -2.75578666798287
  O          -2.17600805971165      1.54186525562337     -2.68485582537057
  H           0.23904315024678     -2.56327275146110     -0.55313484450079
  H          -0.49364471742894      0.50132880475922     -2.90117741314027
  H           0.65847428664523     -1.56072847956641     -1.94459887405934
  H          -1.77793419940712      0.84086761806302     -0.15733155224987
  H          -0.37517764061079     -0.70086511252524      0.76324601386827
  H          -0.33377675061814      1.66348140302352     -0.74169265548467
  C           1.41048602518622      0.01213951465597     -0.08413807656094
  H          -2.98661525198273      1.56065442631591     -2.16279683587726
  F           2.19660362827305     -0.97122956053839      0.38528176902392
  F           1.96020310927938      0.41737458732203     -1.23789458334269
  F           1.53797704024108      1.03512294209117      0.77661476526026
