20
Coordinates from ORCA-job R E -37.752809943730
  C          -1.45895927702423      0.28327645377138     -2.85624744248266
  C          -0.16358560018395     -2.23076853639984     -1.78171504002830
  C          -1.46327017058474     -1.94894299056292     -1.77974909019047
  C          -2.09208726241136     -0.75610906468768     -2.30534881352739
  C          -0.88585364173930      1.03642607924030      0.06607801279546
  C          -0.02418755085303      0.13498521215743      0.50010450263954
  H          -2.15063412139699     -2.66331030894133     -1.34398819624033
  H          -3.17367394009082     -0.72020134309949     -2.23224223203571
  O          -2.05888753248495      1.39590557404239     -3.33108138623242
  H           0.21164258372505     -3.14589513273599     -1.35876422228444
  H          -0.38823359023849      0.33482647697818     -2.97526283443214
  H           0.57001336150856     -1.57298002281783     -2.21278542832914
  H          -1.92491757822216      0.98555159279809      0.33729469962905
  H          -0.29049194038117     -0.69152774045414      1.13908341885583
  H          -0.58276660196567      1.85336557038278     -0.56698830436734
  C           1.43253849847382      0.20619274929579      0.16024425711600
  H          -3.01860329172842      1.31853443171629     -3.24418905022697
  F           2.03312877938373     -0.98973442768638      0.23647470592807
  F           1.66373315649564      0.67568043110448     -1.07601370434022
  F           2.11085571971849      1.01781499589847      0.99782614775356
