20
Coordinates from ORCA-job TS E -37.743460111040
  C          -0.90129660689396      0.66136502354141     -1.41026489119478
  C           0.48975607206358     -1.59426780099824     -0.27285788102342
  C          -0.84304807935813     -1.60782740133524     -0.53064392886933
  C          -1.52252246270270     -0.51150882628159     -1.09722610695718
  C          -0.29245588177708      1.12514498336382      0.76834162284060
  C           0.49358526060799      0.12076404759398      1.24235099822929
  H          -1.45192708100278     -2.40522885261330     -0.12769883095743
  H          -2.60577139944644     -0.54039884395757     -1.11440356561603
  O          -1.54993498383342      1.76367682125699     -1.83564081895136
  H           0.94632613481448     -2.41537798257386      0.25456389561934
  H           0.15325560824433      0.72635187316285     -1.62397410827786
  H           1.16171820781952     -0.98570707219014     -0.84937740561486
  H          -1.32423075512490      1.18173096974322      1.06161751843200
  H           0.13880745753947     -0.59552633489855      1.96379475452545
  H           0.14440535411254      2.01052781829208      0.34236150459439
  C           1.97760217609664      0.29520994923478      1.23107615726888
  H          -2.50514289422934      1.65529142262332     -1.73203863744812
  F           2.65646260131498     -0.84038707435150      1.45607923031270
  F           2.44849789086655      0.80342752208925      0.07868565921205
  F           2.38591338088866      1.15273975829829      2.19525483387567
