20
Coordinates from ORCA-job NEB E -37.766834369830
  C           0.76786163104418     -0.76701909447269     -0.62268772183845
  C          -0.43511728925126     -1.39504628665282     -0.30723001988542
  H           1.62851004775699     -1.03743294195161     -0.03066702382323
  H           0.98610367998599     -0.60774974905099     -1.67002036807704
  C          -1.55583060482546     -1.35347179897883     -1.33120842816613
  C           0.50100687136446      0.98092337573040      0.13353538223625
  C           0.15373787372158      0.64283754495362      1.43890588639158
  C          -1.03288573389032     -0.13099454864935      1.66238860558260
  O          -0.78805803108896     -1.52477886966787      0.94959806456159
  C           1.78487220821588      1.72297129319143     -0.12513114044282
  H          -0.30730835319887      1.28687698748729     -0.52354432590069
  H           0.94098327505881      0.57565505833709      2.17734624126506
  H          -1.93365378842536      0.23876035766659      1.17608683152301
  H          -1.21920666789690     -0.42760520842244      2.68831037174972
  F          -2.52875208141276     -2.22894588705979     -1.07147161216514
  F          -2.15972199565725     -0.13645299624787     -1.40546313645650
  F          -1.11181839814389     -1.60677363477124     -2.57338047696768
  H           2.08169039637211      1.64182266748708     -1.16725366873555
  H           2.58941113176666      1.34784274857201      0.50245204627845
  H           1.63817582850436      2.77858098249998      0.09943449287038
