20
Coordinates from ORCA-job NEB_product E -37.799561436910
  C           2.31751827178208      2.47785446415681     -0.40114583024309
  C           1.12225789178148      2.77166869643282     -1.24677546552060
  H           2.15646068915689      1.48911889142546      0.04404654241787
  H           3.19701967591445      2.39353750846616     -1.04660418594331
  C           1.02939346149830      1.81417905161531     -2.48029262770989
  C           2.54681373700651      3.52291454242510      0.70072733376507
  C           3.54220230238663      2.99436283028509      1.69199628671077
  C           3.29391655267545      2.81787238325824      2.97515532464512
  O           0.28361209628539      3.60435758611157     -1.07267425189065
  C           3.05255556996950      4.83381162608599      0.09588296050490
  H           1.59388339303644      3.70864467545317      1.20450153104385
  H           4.51924716895574      2.76778473334897      1.28515560192408
  H           2.32974063436553      3.04183805803068      3.40141762361341
  H           4.04078544504378      2.44651937472156      3.65562854546456
  F          -0.06528789171304      2.01167362586464     -3.20727685204151
  F           2.08965039588841      1.97557053729134     -3.29037355396651
  F           1.03422077493381      0.52681668995875     -2.09451714228046
  H           3.99313045213310      4.67655384191050     -0.42846185871894
  H           3.21616227762121      5.56612649625069      0.88221912388059
  H           2.32421710127833      5.23639438690713     -0.60290910565529
