20
Coordinates from ORCA-job NEB_reactant E -37.793984629990
  C           1.55670819275911      0.19589883991211      0.07511427436681
  C           1.54719330142178      1.34913063253714     -0.58108446899183
  H           2.02319101280172      0.08168934721932      1.03482683182267
  H           1.08611531851330     -0.67155439664418     -0.34620079119364
  C           0.88600662334695      1.48472415181317     -1.93964479550522
  C           3.09604168402211      5.02660096840588      0.38423721447691
  C           3.25727184483304      4.01901605566446      1.22404010945447
  C           2.74567665258486      2.62631833745031      1.00863638048571
  O           2.07308872936750      2.54080895251269     -0.23398369510334
  C           3.61147652271620      6.40513553667087      0.61545948944289
  H           2.55864028130775      4.86946129771706     -0.53981082882457
  H           3.79017884376091      4.14489933738284      2.15700979627800
  H           2.05599455266624      2.35372580712792      1.82201889308270
  H           3.58552222111389      1.91504756819305      1.02418322253993
  F          -0.04720333212414      2.44612007820073     -1.95058743913656
  F           1.77109892344814      1.79859562862209     -2.89735701004803
  F           0.28004828951926      0.35861763043510     -2.33576242057789
  H           4.29092663561638      6.68876164150839     -0.18737082414310
  H           4.13698603623198      6.47503842158594      1.56456567307931
  H           2.78703766609301      7.11706416368509      0.61341038849478
