14
Coordinates from ORCA-job NEB E -31.248910295360
  C           1.17504252487291      0.86647493699211     -0.15100305696620
  C           0.62903301878050      0.74630610884488      1.13455034754632
  F           0.69099250262197      1.85653923808480     -0.92407752026632
  H           2.24255335686484      0.74524545440002     -0.31299794430719
  Cl          1.57299543126859     -0.27726699509804      2.22114416652008
  C           0.32857476837857     -0.67457837169853     -0.98664291043420
  C          -1.01908447192797     -0.42264871097711     -0.74605767961580
  C          -1.45376626201637     -0.40245631095756      0.60604046360386
  O          -0.62368574878275      0.81935948567084      1.32975342850520
  F           0.77300565250556     -0.60925923331026     -2.25207909144175
  H           0.86562866057173     -1.44720093791787     -0.43888546827045
  H          -1.56431476576462      0.13738068685468     -1.49075621379805
  H          -1.13718473032289     -1.23264299603622      1.23208254964467
  H          -2.47978993705007     -0.10525235485176      0.77892892927984
