14
Coordinates from ORCA-job NEB_reactant E -31.271846718300
  C           2.12521310669112     -0.03830697369763      0.17436333488651
  C           1.36206493788493     -1.12948538205162      0.22352260286999
  F           2.31855070422669      0.62951320710232     -0.97675348965471
  H           2.63881244283965      0.39130263812731      1.01594958843230
  Cl          1.17894123597122     -1.90844022353275      1.76021998622916
  C          -0.60320829755006     -4.26380104238205     -2.61319877658844
  C          -0.67840741733940     -3.07751875683660     -2.04180626977104
  C          -0.09614097579496     -2.77938385024876     -0.69947797464276
  O           0.74706803781218     -1.64416954455694     -0.84648938775218
  F          -1.15497514682854     -4.50686658348354     -3.80669112944433
  H          -0.13266933917840     -5.14444536550010     -2.19852203303947
  H          -1.16262286733914     -2.25572056852019     -2.54658477270968
  H           0.47769796447261     -3.63446363086585     -0.32271532745082
  H          -0.90012438586789     -2.55001392355363      0.01428364863548
