14
Coordinates from ORCA-job NEB_product E -31.288184086660
  C           1.47448327010541     -1.34354990776679     -1.18019872961276
  C           1.26046281019922     -1.08850180251176      0.29341126687299
  F           0.82704495052382     -0.36765010265767     -1.88706385909671
  H           2.54009902510140     -1.27834261733557     -1.43759650773228
  Cl          2.31920456839041     -2.11197356469582      1.26594770157787
  C           0.93507058371893     -2.74046134771083     -1.58019928429134
  C          -0.56338996564684     -2.74928423774323     -1.61429077986491
  C          -1.30357006278377     -3.22461937551776     -0.63201779766646
  O           0.50395643415537     -0.33736891336998      0.79701567028396
  F           1.44762524773263     -3.04762098742995     -2.81936298308270
  H           1.33886779362035     -3.48728571066239     -0.88536534141460
  H          -0.99462332486246     -2.30854111253287     -2.50065206494754
  H          -0.86889131358444     -3.66030248657856      0.25308934562386
  H          -2.37754001667003     -3.19379783348683     -0.67391663664936
