23
Coordinates from ORCA-job NEB E -43.646291010560
  C           0.46449024490992      0.55018990405068     -0.76191090011452
  C           0.64666286971262      1.93462794639189     -0.26045706558484
  C           1.41321058531570      0.11009393419971     -1.86751316889548
  H          -0.55167421080212      0.48035557190091     -1.17138873303164
  I           2.27749023845883      3.18970517844713     -0.52887085471302
  C           0.49985227367449     -0.34217135064811      0.53240043084086
  C          -0.18754084180828      0.45668813281765      1.57301514858856
  C          -0.92623417761732      1.72251070359682      1.36276963861432
  O          -0.40185465200543      2.53164260642571      0.33742491281395
  C          -0.07334825865962     -1.77205581569283      0.45326443427131
  H           1.56693757620662     -0.44525418967761      0.76198880522344
  H          -0.59221968223311     -0.12023511559198      2.39486432918752
  H          -0.85748168103196      2.34517097557595      2.26325365818797
  H          -2.00356715510153      1.54049335966649      1.19458965966425
  Cl          3.07858698316812     -0.08782213854209     -1.30372075898605
  Cl          0.88733028859776     -1.43888947903419     -2.57926337537683
  Cl          1.38851919642033      1.28905400016436     -3.20958800761286
  C          -1.51843512814292     -1.82558591940064     -0.02706246755120
  H          -0.01655172289823     -2.18966191199951      1.46080242944160
  H           0.55258468030566     -2.38912421463428     -0.18931036428017
  H          -2.13963235736778     -1.14208276739079      0.54806904508493
  H          -1.91420752930899     -2.83038546432179      0.09707796573913
  H          -1.59291753979276     -1.56726394630346     -1.08043476151123
