23
Coordinates from ORCA-job NEB_reactant E -43.711017537940
  C           1.76596591086396     -0.73773186314552      0.22023721084990
  C           2.20080989613434     -0.32296371373437      1.41259197897071
  C           2.49148522786934     -0.62641815650208     -1.06403415977452
  H           0.79283535721476     -1.19901138957193      0.14464492163279
  I           4.06068567502198      0.60098782316911      1.74573590320100
  C           0.07380472298729     -3.30139973843835      3.68090949679971
  C           0.41396876955451     -2.52073506452896      2.66842355251624
  C           0.30556503754412     -1.02614393414068      2.70059102355474
  O           1.57992182061873     -0.38779723360956      2.58383703964927
  C           0.16400819352071     -4.79125827459225      3.67282825872569
  H          -0.32914342662527     -2.86521563187576      4.58627197649436
  H           0.82388884920460     -2.94746284711842      1.76330634264473
  H          -0.07052600376731     -0.69233892546159      3.67022072780414
  H          -0.36271991070568     -0.65690046763102      1.91184650309686
  Cl          4.04442134966442     -1.51840712604575     -1.03576491270605
  Cl          1.50186040919847     -1.31645068554443     -2.37068062821952
  Cl          2.84497531758469      1.07543379567291     -1.49736417717467
  C          -1.20792147935093     -5.42562423747112      3.90124871036150
  H           0.83791199103732     -5.10620419351899      4.47428357559370
  H           0.57898443618857     -5.13568189346904      2.72440658456497
  H          -1.62451267034275     -5.10393405783376      4.85294647393742
  H          -1.12597014903802     -6.50940773225987      3.90940589713495
  H          -1.89489932437784     -5.13643445234857      3.10930770034208
