17
Coordinates from ORCA-job NEB_reactant E -37.008458029610
  C           0.65826232508339      0.65204402554449     -0.85208649395719
  C           1.95879067306925      0.87531264647486     -0.95687414845876
  I          -0.61095543655034      2.14044119864466     -0.08743998338817
  H           0.18545942073514     -0.27258150993464     -1.11937787668922
  I           3.15447352659726     -0.69485243714692     -1.78681237927906
  C           2.30558244787272      3.16865119549861     -3.07845524974895
  C           3.48811351429038      2.94997589317622     -2.52909342569944
  C           3.70477880437449      2.48669028099334     -1.12152368601138
  O           2.55290435706266      1.96987404291085     -0.48952339116426
  C           2.12574218992536      3.62461131212724     -4.49438353401817
  H           1.37638761782438      3.06596464121458     -2.53733926275523
  H           4.39501987507992      3.09501470195417     -3.09906730384270
  H           4.00983439089532      3.33176597965451     -0.49545666781929
  H           4.51171739146465      1.74016703167913     -1.10158285267581
  F           1.43639671557905      4.79361473521987     -4.53255629099547
  F           3.30682662523278      3.85752366680612     -5.11210091763562
  H           1.56566556146361      2.89618259518290     -5.10672653586129
