22
Coordinates from ORCA-job P E -49.076233754390
  C          -1.34168749789034      0.40064449416720     -2.71744982181680
  C          -0.23822143206124     -1.65612183805878     -0.85987245528557
  C          -1.28814182814140     -1.93990764663777     -1.88552973655039
  C          -1.78663596532764     -1.03567949624316     -2.71050978930964
  C          -0.07930799679816      0.62084779579602     -1.87878070310514
  C          -0.14726403390953     -0.15715852653034     -0.56084482964484
  H          -1.62848470280940     -2.96317917810509     -1.93824737779630
  H          -2.55454077053409     -1.29139443463283     -3.42480571175535
  C          -2.49909984684845      1.28624289922037     -2.25386501856504
  H          -0.46750763218086     -2.20809966714541      0.05252643593624
  H          -1.14740729745451      0.71796347995120     -3.74930253806090
  H           0.72556829882095     -2.01994915470829     -1.22836026933463
  H           0.05533776081355      1.68628332920717     -1.68738462886630
  H          -1.03769759085707      0.14584044437845     -0.00221928593382
  H           0.77739951636900      0.26623549778442     -2.45306092740462
  C           1.05070776303520      0.16267428290023      0.32782134876871
  F          -3.54964287406984      1.19373494930817     -3.08374026618769
  F          -2.95630578246111      0.98003945792572     -1.03171637864808
  F          -2.16120621151473      2.58493883160019     -2.21636831876001
  Cl          1.08158262780085      1.89460918667051      0.74999532851257
  Cl          0.96508053640154     -0.75716198602835      1.84950260291083
  Cl          2.58780495961727     -0.23651272081965     -0.46974765910321
