22
Coordinates from ORCA-job NEB E -46.351258141510
  C           0.08240691045825      0.58194765628333      0.81834404869266
  C          -1.09435502360580     -0.20948307121441      0.87827192886724
  C          -0.10469344071909      1.98552290868561      0.68870042556920
  H           0.92637048913271      0.32662299152512      1.45043847278172
  O          -1.12516867345626     -1.42752055193847      1.46482669927570
  C           0.59766221419632      0.07412640046548     -1.01865676805727
  C          -0.51470508470932      0.43956916497617     -1.78251550761300
  C          -1.72084664153698     -0.24648548020591     -1.52760929043002
  O          -2.07505039795017      0.05192052085834      0.11146524732141
  C           1.91173312909077      0.76630323467392     -1.26901058060653
  H           0.76276305549476     -0.98289570179826     -0.82499578464984
  H          -0.55825597915838      1.44891251774727     -2.16420559537731
  H          -1.68541871871647     -1.32916079063056     -1.46777406959007
  H          -2.61715317702563      0.13119360285812     -1.99854662332028
  N          -0.25515219163198      3.11617014497650      0.60713762551177
  C          -0.09825177308658     -1.81920898145674      2.35188338403247
  H          -0.43674957810482     -2.75464050353504      2.79359773250413
  H           0.04969895079132     -1.07819056493652      3.14203762999582
  H           0.84563192859436     -1.99148309382068      1.82658082797929
  F           1.80867240701098      2.06914023702353     -1.51941787859526
  F           2.76236197541600      0.63001041610328     -0.23339744254853
  F           2.53849961951602      0.21762894335993     -2.32715448174329
