22
Coordinates from ORCA-job NEB_reactant E -46.390316304880
  C           1.83621271986371      0.08676405644176     -0.57744507663078
  C           1.72852245108666     -1.25147822182164     -0.73047850658191
  C           1.76213633594481      1.06896559860373     -1.56145185844159
  H           1.96780834465812      0.44838991337305      0.43142107533166
  O           1.77808257493782     -2.00322035478698      0.37964202121503
  C           3.52529029487852      0.01806057344987     -4.08450404031568
  C           3.11218669702659     -1.07200659118981     -3.46154725836331
  C           1.68098004473115     -1.36361854616290     -3.12666179687052
  O           1.55516782403490     -1.97490958834966     -1.85534901099913
  C           4.96253283553697      0.24605592149406     -4.43368261878355
  H           2.86658294044619      0.82179433782164     -4.37618624641532
  H           3.81483718476748     -1.84052952268569     -3.16470318619060
  H           1.30038069014427     -2.12087436169556     -3.82169168386052
  H           1.06120498879360     -0.46658058655661     -3.20009251670610
  N           1.70139560718223      1.91981354492558     -2.33402684069107
  C           1.66989746928148     -3.40946682624818      0.24586269307971
  H           1.73814935109339     -3.79984549032193      1.25869101305292
  H           2.48172467390552     -3.81144298612728     -0.36440052414617
  H           0.71318411607173     -3.69006725963331     -0.19971100484672
  F           5.77220860855239     -0.74175690433695     -4.02022222612852
  F           5.14132680741285      0.34691794594684     -5.76336722419831
  F           5.44148743964960      1.37883534785999     -3.90159518250954
