17
Coordinates from ORCA-job NEB_product E -25.281654365310
  C           1.70478710077079     -1.08404165524141      1.27327667690355
  C           0.89908185278411      0.17115340719845      1.18262950620831
  C           1.57813137349112     -1.86847261611945     -0.03147466768096
  H           2.75351790966699     -0.81596308561460      1.44080298766505
  I           1.41042019230384      1.60468162398945      2.75374760786293
  C           1.22211351310747     -1.89268873949061      2.49976791437248
  C          -0.26077385804777     -2.10730988635604      2.49298550026966
  C          -1.08276522240877     -1.57255611290396      3.37561352955898
  O           0.05824314663797      0.46210682490213      0.41108276201934
  H           1.73675859970533     -2.85637273669502      2.48372985159385
  H           1.50940145389496     -1.36924729662720      3.41374713446239
  H          -0.64450889752443     -2.73764771580369      1.70243526971015
  H          -0.72780168963925     -0.94353152016497      4.17615341578358
  H          -2.14500285863642     -1.74194735650316      3.34002721173657
  H           0.53712196608477     -2.08869364023814     -0.25080313820004
  H           2.13017117107805     -2.80201861067259      0.04267723667195
  H           1.98240424673124     -1.29085088365920     -0.85989879893779
