17
Coordinates from ORCA-job NEB_reactant E -25.253044291640
  C           1.83045810182197      0.05455721836436      0.10609314863565
  C           1.50608596207975     -0.18637477439591      1.36636895493504
  C           1.80876460638870     -0.98746238070201     -0.96352966600981
  H           2.14399375193717      1.04476384509459     -0.18431170180833
  I           1.58213966491281      1.44353404307146      2.77874063733392
  C          -0.51135641203831     -3.25030050244828      4.27867090974696
  C          -0.12345180791227     -2.94141177026035      3.05683037810481
  C          -0.02687786886303     -1.54059028668090      2.54161161693333
  O           1.22019910880737     -1.38964577647181      1.87276357202902
  H          -0.58371970936071     -4.27201612897694      4.60799195120872
  H          -0.78298879893175     -2.49389489751210      4.99655360747334
  H           0.15705351471491     -3.70286893255314      2.34308919607326
  H          -0.10161366886395     -0.81918816648355      3.36627730394561
  H          -0.84544089422359     -1.34287186057453      1.83104330661909
  H           1.44423857247084     -1.93419995065341     -0.57472175217868
  H           2.81380990494845     -1.13349150550553     -1.35777856812794
  H           1.17170597211163     -0.66293817331194     -1.78569289491399
