19
Coordinates from ORCA-job TS E -33.668075489950
  C          -0.97089499203671      0.75220875786198     -1.46799500758781
  C           0.35745002633773     -1.57858898020092     -0.40792966186361
  C          -0.96531954142033     -1.54887539632908     -0.67244733773633
  C          -1.61737050102963     -0.41425102601463     -1.22037537881770
  C          -0.45700297733633      1.26374114634641      0.64493011991827
  C           0.32062306462941      0.29042226336430      1.18069301961637
  H          -1.59639745525844     -2.34805441954255     -0.30732146032375
  H          -2.69880282321543     -0.43382407527344     -1.24485094266217
  H          -1.52577164692028      1.61859822265269     -1.79001934150512
  H           0.79697740643895     -2.40482412271475      0.12537449488841
  H           0.08422459920882      0.77798931196607     -1.67347397111073
  H           1.04938209803409     -0.92626713777476     -0.90738828475261
  H          -1.49762379542950      1.32023066702349      0.90526728898023
  H          -0.05760219375559     -0.46506236342688      1.84630191719611
  H          -0.00697825495471      2.15404648235925      0.24099822991352
  C           1.80490748902065      0.43579392965668      1.17724478775939
  F           2.45687096909003     -0.71118519648511      1.42279914427509
  F           2.29455825673647      0.91702033106974      0.01917470875710
  F           2.22877027186080      1.30088160546150      2.12901767505533
