21
Coordinates from ORCA-job NEB E -40.275704807580
  C           0.03448544823144      0.58708223912517     -0.70946714608554
  C           1.35675792943549      0.45943052600889     -0.11654527890180
  C          -0.18417121719048      0.28320086260381     -2.18887923121632
  H          -0.29875845917366      1.61618300674165     -0.56316872982626
  C           2.18805305140704     -0.65486606884716     -0.31500160831041
  C          -0.94513966698247     -0.19730738666481      0.43753003204924
  C          -0.55603694710393      0.31763446098467      1.74418498685776
  C           0.25778656688393      1.52930356925350      1.76822714483430
  O           1.46444170164370      1.04208069357104      1.07912761998397
  C          -0.91140761731328     -1.72707716184512      0.39378700432476
  H          -1.91654074717675      0.18310690059884      0.11200365149097
  H          -0.24227536033814     -0.42382945428245      2.46759949450852
  H           0.61003430504461      1.81052749480888      2.75818476957145
  H          -0.14249386870179      2.40939466785702      1.25786536351135
  Br         -0.94106618328453      1.91288707633787     -3.04081024504505
  Br          1.45794166633423     -0.11472867722562     -3.18774042828854
  Br         -1.45080784362914     -1.12618336065472     -2.63484983415697
  N           2.90199309817325     -1.54828363683505     -0.45125098824669
  H          -0.03548203835655     -2.08783984967740     -0.14317836476817
  H          -1.79820801940861     -2.14536011335849     -0.07119231464241
  H          -0.84910579849438     -2.12535578850053      1.40357410235582
