21
Coordinates from ORCA-job NEB_product E -40.326883570610
  C           1.03139422577846     -0.91179320571269      1.84319867745512
  C           2.34553666978596     -1.09386021801908      2.60142560940540
  C           1.15003783016503     -1.25682323185067      0.36715900009780
  H           0.82406391597363      0.16789618263076      1.87470227092341
  C           3.11690880643809     -2.28483775668666      2.28479676601242
  C          -0.09390156797211     -1.59815670613560      2.68718923960481
  C          -1.38338645814300     -1.72359081572176      1.92679033829320
  C          -2.42190307101800     -0.93150290707851      2.11824492627165
  O           2.70889303403583     -0.31953607818131      3.44561419125326
  C           0.30318099150206     -2.95544688416108      3.27477744919048
  H          -0.25915543193345     -0.91372770035748      3.52789594858476
  H          -1.44388860645357     -2.54570937716179      1.22688439410584
  H          -2.39445381705808     -0.11503162043937      2.82144567052118
  H          -3.34003865488801     -1.06301086063115      1.57371583384018
  Br         -0.24792577166733     -0.35989681833591     -0.66903073293830
  Br          2.87591105047624     -0.53190195007015     -0.29730172456151
  Br          1.09710446917599     -3.13688754226041     -0.10387516476949
  N           3.76527539106231     -3.20497282291069      2.07970323292817
  H           1.14297450026970     -2.85776188227256      3.96096871603062
  H           0.55894841234384     -3.68593142636812      2.51290956377645
  H          -0.54217591787358     -3.34501637827576      3.83838579397457
