21
Coordinates from ORCA-job NEB E -45.406255911670
  C          -0.09805878684936     -1.09807791859510      0.34211519644734
  C          -1.27214257059206     -0.61735388964158     -0.27692316162505
  Br         -0.32341651925337     -1.70659237588338      2.13289937659585
  H           0.59700205055661     -1.73075555626277     -0.19416305381077
  O          -1.38450079674232     -0.52935313129514     -1.62625879871498
  C           0.76271391994348      0.67653243469606      0.48793265200453
  C          -0.14664730992263      1.41446651120388      1.25062371808896
  C          -1.41465544680042      1.65755035900695      0.67657709602483
  O          -2.06743655551927      0.11887392257084      0.39100280716532
  C           2.14197884698040      0.42341130535636      1.03672257778108
  H           0.81950869648452      0.87988194681963     -0.57888643963650
  H          -0.05490727507150      1.38445586606584      2.32653419377349
  H          -1.44269878296413      2.02067457462431     -0.34563019690952
  H          -2.17278348484706      2.09222435406680      1.31278100416604
  C          -0.59442303060494     -1.35641510625985     -2.45585711512508
  H          -0.63270758353324     -2.39915730923871     -2.13062864171141
  H           0.44577687250462     -1.02019709430662     -2.48709604178256
  H          -1.02837979687511     -1.27145149792837     -3.45055422080295
  F           2.18233410148290      0.19448773368317      2.34695434436381
  F           2.74603934556450     -0.61898282662121      0.43531536520543
  F           2.93740410605840      1.48577769793889      0.80653933850212
