21
Coordinates from ORCA-job NEB_reactant E -45.442519561080
  C           1.14315204918360      0.01638481514054     -0.41739479379670
  C           1.66816501656460      1.24261490151890     -0.46378095439618
  Br         -0.06138410449218     -0.42499568859992      0.96622261705276
  H           1.33570197748477     -0.77017209755835     -1.11838733360465
  O           2.54428832944144      1.70295522160215     -1.38949595036979
  C           4.28138456877329      4.11569524817291     -0.08487499893380
  C           3.42227062343756      3.36172180142142      0.58016535047025
  C           1.93770001891161      3.42835713782538      0.40537265680830
  O           1.33240389794012      2.15309299846899      0.47738530291989
  C           5.76130924916382      4.01909511811328      0.09997522056576
  H           3.98165159883547      4.84847506449580     -0.81831409977194
  H           3.76774370540848      2.63180195879618      1.30113782804895
  H           1.67950739865972      3.92775118058921     -0.53527573207341
  H           1.49296170526371      3.97774923183001      1.24182184257496
  C           3.00796686680304      0.80685657711582     -2.37500709319403
  H           2.18919884122053      0.46418959866741     -3.01326628508606
  H           3.50540244932476     -0.05432247744215     -1.92172839423587
  H           3.72426124987335      1.37297487055024     -2.96713117688578
  F           6.12925421938147      3.12574519905208      1.02652108086574
  F           6.37991271201677      3.66070481387754     -1.04169812047587
  F           6.30324762680407      5.19512452636255      0.46215303351745
