21
Coordinates from ORCA-job NEB_product E -45.455483784110
  C           2.96553690960889      1.36066026390222     -0.06193841483717
  C           1.61175522205690      1.45165194436331     -0.77480060610645
  Br          2.63828831989848      0.67681235949766      1.73397991081868
  H           3.64011396560530      0.64262056747457     -0.53125030155365
  O           1.57843796160033      1.19525463706130     -2.08368637520347
  C           3.58494401788306      2.77269575973389     -0.05782449913929
  C           2.94966417352615      3.68453349886259      0.95754109938404
  C           2.09520274367939      4.63607613299427      0.63851931361999
  O           0.61790629598691      1.79524578391073     -0.20772554068157
  C           5.09386503097555      2.69683560991970      0.16907744486670
  H           3.45937674955100      3.20274653127908     -1.06120737845622
  H           3.22511601599766      3.49397655970315      1.98488516037335
  H           1.80365003028095      4.83168388559268     -0.38027064252085
  H           1.64273278184059      5.25350746086380      1.39322826354255
  C           2.68387432558128      0.71353905074696     -2.82986215933195
  H           2.98334859803113     -0.28379297545262     -2.49897963578042
  H           3.53972770334946      1.39099063260217     -2.78950984852885
  H           2.32466904403200      0.65205278635872     -3.85588265814235
  F           5.44151320194549      2.21499403681596      1.35963876585625
  F           5.68169964062568      1.90726700503876     -0.75483964247088
  F           5.66327726794378      3.90194846873113      0.04750774429156
