20
Coordinates from ORCA-job NEB_product E -48.477341270790
  C           1.09730580388915     -0.74951520891521      0.86422878217224
  C           2.03225223927966     -1.87932084092031      1.31698367216523
  C           1.74775828254674      0.24393109303086     -0.08694029330423
  H           0.32721661504591     -1.27737785069871      0.28062275377457
  C           3.32891409128508     -1.54412336012993      2.08218708794139
  C           0.32462279934928     -0.10450453448634      2.04824721522268
  C          -0.05752800947508     -1.16097405070177      3.04694530225723
  C          -1.12917893767235     -1.91941761559520      2.92730748064106
  O           1.76582487343580     -3.01738086628313      1.06636558267865
  F           1.07256040714058      0.86705798226075      2.65496673942225
  H          -0.56209178354611      0.40598074472593      1.64521418754390
  H           0.62638778883894     -1.25510353547005      3.87779885048020
  H          -1.81582093030688     -1.81643946235553      2.10284138227771
  H          -1.36111905800747     -2.67789044805470      3.65279926759149
  Br          0.36128626704968      1.35610103024734     -0.90494383672913
  Br          3.08587409861398      1.43251292377221      0.66473259582143
  Br          2.61901101148387     -0.77763830622950     -1.53708950411567
  F           3.11944170399624     -0.68960120488780      3.10026625508860
  F           3.82021407403338     -2.67633605400914      2.61658638972873
  H           4.10166866301961     -1.12036043529978      1.41678008934167
