24
Coordinates from ORCA-job NEB_product E -48.687757297480
  C           2.73158390123917     -0.79979238200767     -1.33148340438784
  C           1.59580018685813     -1.75950926874863     -1.57567946541351
  C           2.16418516872888      0.57823002016985     -0.98058358373901
  H           3.36799469546468     -1.15314631159286     -0.51762529164373
  C           1.61141594819252     -3.03034282662089     -0.70689717698416
  C           3.60430407052331     -0.72602184085929     -2.61752725856385
  C           2.86763745029524     -0.10560688693240     -3.77228090659504
  C           3.18263689089399      1.06804064515503     -4.28757918016651
  O           0.69124531045317     -1.55959987746650     -2.33205984932688
  O           3.99579434272967     -2.05793491319417     -2.89476302151185
  H           4.49195801206729     -0.11639347895230     -2.37962540063697
  H           2.05846684528587     -0.70072298509364     -4.17070776580352
  H           2.63995908105113      1.48652571529348     -5.11770253818723
  H           3.98906995713634      1.66401756874102     -3.89127474822841
  F           3.18831079951669      1.46694072883191     -0.79346301076745
  H           1.59969724181069      0.53945881100864     -0.04380400774982
  H           1.54063745924354      0.96546590367539     -1.79133651492760
  Cl          3.18731835382737     -3.81025131045562     -0.62361310884540
  Cl          1.15917786576542     -2.42646630016573      0.91704851456297
  Cl          0.39786809597665     -4.18278870358734     -1.25908031347032
  C           5.01388390165159     -2.15616578928110     -3.86128075674686
  H           5.23938628796485     -3.21600175161848     -3.95627723657405
  H           5.91245565258155     -1.61616007889337     -3.53996875759854
  H           4.68951248074228     -1.75987468740537     -4.82923521669441
