19
Coordinates from ORCA-job NEB_product E -25.377221560580
  C           1.47759549995941      2.52813062654959      0.54866780437148
  C           1.40623379385322      1.49139669710480     -0.55219948474492
  N           1.07418285350898      2.02195118665348      1.84583663769682
  H           2.52044872303739      2.86628484457931      0.61792774105156
  H           1.74782318145088      1.85642931058167     -1.54137924709649
  C           0.61535989998489      3.75196710399172      0.13464849486095
  C          -0.82620596897309      3.35266216201432      0.01507352243799
  C          -1.45813928537414      3.18010908173154     -1.13008721480936
  O           1.01242801097688      0.36857735462766     -0.40047571616097
  C           0.78029039694309      4.86849635867163      1.16309520447171
  H           0.97442513525510      4.09444132901020     -0.84185530920777
  H          -1.34284634262489      3.20939383747022      0.95402578577800
  H          -0.96720808858096      3.32364192007149     -2.07938320652746
  H          -2.49353376962614      2.88853366062415     -1.17257686516307
  H           1.73978343797164      1.32746505831277      2.16812241102707
  H           0.17896487287683      1.55015110193379      1.75572305644866
  H           1.80596109259974      5.22893539905884      1.17377780424227
  H           0.53482483573065      4.49173522650523      2.15193082701529
  H           0.12071172103053      5.69859774050757      0.92172775430821
