21
Coordinates from ORCA-job NEB E -45.841358552860
  C           0.81897154385217      0.22770330252536      0.06939010011717
  C           0.12198865847140     -1.95990342265935      0.10417831910813
  C           0.83969109717119      0.97037541267646      1.31021213930928
  H           0.17243772997510     -0.78104823644326      0.39047444600146
  C           0.71066317577557     -2.72456291253683      1.23493086077171
  C           0.10265366964682      0.77505022462566     -1.13984862124436
  C          -1.15287851368268      1.58028559414037     -0.90129900060794
  C          -2.35808740249208      1.11451322666492     -1.16659001040430
  O          -0.30556269644025     -2.25687726225034     -0.94846452402220
  C           1.05731832434531      1.58670400388931     -1.87441436266334
  H          -0.13194013452289     -0.08371700531459     -1.78777300098006
  H          -1.00724608524127      2.57062654964354     -0.49564057085090
  H          -2.51383852535015      0.12950655621136     -1.57785908008969
  H          -3.24234846019326      1.69825350516913     -0.97859195428011
  Cl          1.58209060482583      2.54138781394807      1.00393612769492
  Cl         -0.82970900790665      1.28349103469087      2.15849342111298
  Cl          1.78554270957479      0.11124027053700      2.55703154754890
  F           0.64335782823811     -4.06094118120542      0.98562875050777
  H           0.16870438953866     -2.52118010077444      2.16769925544004
  H           1.76526236874400     -2.44564806420450      1.36089948820784
  N           1.77292872567026      2.24474069066666     -2.47239333067729
