23
Coordinates from ORCA-job NEB_reactant E -50.334789611250
  C           1.18909834116792      0.03432041773712     -0.23853789949251
  C           1.36407122118183      1.06288066177616      0.61429319494968
  C           1.64464136336779     -1.31581668820181      0.13085118944395
  H           0.70039438915609      0.19179475844208     -1.18722601109194
  N           0.85406758149178      2.37571988249210      0.21043939395483
  C           4.83920900615256      1.36761760450583      3.18026797701688
  C           3.53911298101390      1.23707776587450      3.43463334277639
  C           2.50285885747423      1.91383977115089      2.60256796416088
  O           1.88476339321199      0.87180673469817      1.80895334411831
  O           5.87509993101850      0.80161044129113      3.81187369071640
  H           5.19787972573619      2.01818606774878      2.39205855355236
  H           3.16326878602194      0.58492575873753      4.20511511708465
  H           2.95499024124627      2.66729995422238      1.95363823965787
  H           1.72574669003026      2.37654307711516      3.21750827089664
  Br          1.34990172941909     -2.58823578534099     -1.30033897111739
  Br          3.56531142982538     -1.31930800406057      0.57383291944509
  Br          0.70176068986651     -1.96023683854558      1.73827652451159
  O           0.63725644426343      3.17600744217854      1.08986409241938
  O           0.67073502850426      2.54940531837376     -0.97084063306244
  C           5.59508325418755     -0.12286504732109      4.84132124227926
  H           6.56031179168329     -0.48527814185923      5.18892554648044
  H           5.00212676845973     -0.96042158227985      4.46393152452971
  H           5.06341035551950      0.35672643126500      5.66809138676999
