23
Coordinates from ORCA-job NEB_product E -50.321847166600
  C           2.43802421002441      0.11597738548624      1.10906871139860
  C           1.40269619270659      1.13289608681666      0.75448846955529
  C           1.82258491917952     -1.25570783027788      1.32263171629793
  H           3.15560519027388      0.03764080107642      0.27776839718571
  N           1.97876716847639      2.27269432155346     -0.13821493096365
  C           3.28970065780870      0.68873889989654      2.29530188045000
  C           2.58639964275453      0.61780897577010      3.62295845004767
  C           1.86476841263703      1.60633722210841      4.11741524727158
  O           0.27110931132355      1.22966267285179      1.08032917917713
  O           4.49418349493385     -0.03196968739123      2.27135447007719
  H           3.49245526309728      1.74944632227044      2.05376856734737
  H           2.73623032679118     -0.30261554821826      4.17022759197139
  H           1.71954423122531      2.53359740372122      3.58650485121667
  H           1.37448872850396      1.51987857997042      5.07031140089085
  Br          1.06666568352310     -1.82891499866888     -0.40627998596825
  Br          3.14704193651592     -2.56555077165246      1.84263053969178
  Br          0.37770076585296     -1.31885194155786      2.61480632710149
  O           1.29234705792994      3.25119993835542     -0.20901053451543
  O           3.04922093445579      2.07751960037399     -0.65766691732413
  C           5.53265831903062      0.55885984915545      3.01806303414095
  H           6.38899660908744     -0.10122439844254      2.90605251956515
  H           5.26751387940444      0.64534398139260      4.07620932580699
  H           5.77579706446361      1.55273313540993      2.62588168957772
