20
Coordinates from ORCA-job NEB_reactant E -42.575311068080
  C           1.77569695965609      0.07086385207437      0.04292458380941
  C           1.10205056834517     -1.09750215663956      0.03923258081684
  C           2.28679290429198      0.67585343793051     -1.22096464727596
  H           1.97270083864184      0.60998112290738      0.95196718915668
  C           0.64923371320286     -1.60145041000397      1.29833470626775
  C           0.69266279326151     -4.63334473621269     -2.76825250188656
  C          -0.00235209820874     -3.57201563612071     -2.35509367004879
  C           0.12334678635598     -3.00642258361083     -0.98394211555802
  O           0.85666518196163     -1.77240582240408     -1.07994871516254
  N           0.70227573858738     -5.12081712886543     -4.04641231326400
  H           1.34636526571892     -5.15997363729898     -2.08516999761686
  H          -0.64025803829948     -3.03096988957745     -3.03655976970756
  H           0.66123017985518     -3.69766701072015     -0.32383749558261
  H          -0.86269894280459     -2.79471238187751     -0.54871098335122
  F           3.18518154921236     -0.10065937038381     -1.85322931625093
  F           1.31617262110672      0.92758442834669     -2.11713914924771
  F           2.89879330390356      1.84721570633573     -0.98847662267017
  N           0.28750042710499     -2.00525474461056      2.30669789285268
  H           0.00207474947942     -4.75581872923616     -4.67170490452781
  H           0.93326549862723     -6.09038431003279     -4.17781475075263
