20
Coordinates from ORCA-job NEB_product E -42.563806983560
  C           1.38739895065376     -1.52901896052867     -0.71970355847715
  C           2.71978469771008     -2.10292586384912     -0.18994553503528
  C           1.64441566101903     -0.49606498604866     -1.80936106016538
  H           0.83325997251011     -1.01959589669302      0.07383002067415
  C           2.49224385784462     -3.00279423501858      0.92785141574150
  C           0.66063714828516     -2.80741260896082     -1.21692492293116
  C          -0.32487542221952     -2.58090718979987     -2.32827889158981
  C          -1.63333223299087     -2.60175524091025     -2.15776839205963
  O           3.80801139428329     -1.80792804383352     -0.59680576463251
  N           1.76996876783419     -3.69996187141007     -1.55527367706498
  H           0.14396126412651     -3.24353037157070     -0.35468071741899
  H           0.10369688810314     -2.40832846822187     -3.30647688876990
  H          -2.07750085353518     -2.77365816354873     -1.19099006650775
  H          -2.31245291543287     -2.44037726638914     -2.97609033472086
  F           2.21645199232349     -1.00731450834136     -2.90467638731934
  F           0.49914010493967      0.08231677004097     -2.21542127725373
  F           2.42481662123241      0.49882705195677     -1.37941759984814
  N           2.30929284216904     -3.69951890755066      1.81658134327984
  H           2.21383729983658     -3.43147592109871     -2.42766502899663
  H           1.48494396130737     -4.66967531822398     -1.61648267690425
