17
Coordinates from ORCA-job NEB E -33.655251041490
  C           0.71232006326944     -0.87494847923017     -0.32805141403019
  C          -0.70285435176042     -0.60123730407441     -0.46281871288567
  H           0.93064320979381     -1.61020981500286      0.44855860204708
  H           1.15656832149041     -1.20237152112888     -1.26541486811620
  C          -1.36996062090200     -0.49035588200068     -1.79806789104755
  C           1.40030099764682      0.47516409712864      0.17274265126212
  C           0.70244446592439      0.95807727421412      1.31863177328503
  C          -0.70707718444881      0.59494550664008      1.56937383475448
  O          -1.40542601929489     -0.08256729398340      0.55881231404077
  I           3.58292636737435      0.08308817629334      0.60595325239999
  H           1.47958787054586      1.12321038313965     -0.69269354799961
  H           1.24125386800274      1.26918307442234      2.19791732310934
  H          -1.30940207659712      1.50052475748847      1.72236992492351
  H          -0.77780223354145      0.02042626849227      2.50535083899990
  F          -2.64207919860903     -0.94735400707016     -1.76656665660662
  F          -1.46248673812593      0.81884687390148     -2.19929881612430
  H          -0.82895674076818     -1.03442210922982     -2.58679860801208
