17
Coordinates from ORCA-job NEB_reactant E -33.695793768820
  C           2.19461218584464      0.36558759829793     -0.28986080607505
  C           1.58682542414200      1.42410693315960     -0.81231846235838
  H           2.72695661890373      0.39238649413347      0.64255968323619
  H           2.16693478276010     -0.58049040135908     -0.79513424695363
  C           0.85123236795242      1.32902065422482     -2.13471537766855
  C           4.23535164071437      4.26306342563534      1.16035284105868
  C           3.60421264202621      3.18352450861580      0.74399079100511
  C           2.12220324659300      2.99626342003654      0.90316468487455
  O           1.49096533394718      2.68038822127520     -0.32003468689164
  I           6.30942820747910      4.52640581920283      0.96291518768625
  H           3.74554690615646      5.08602575300622      1.65292187350390
  H           4.12926382935885      2.38492989147182      0.24035807184566
  H           1.65110519962111      3.92547054416717      1.23306275875007
  H           1.91925048826514      2.21273287379123      1.64717165756492
  F          -0.45654571581752      1.64683019324541     -1.98649340338674
  F           1.35789556291308      2.20305346720376     -3.03540206227484
  H           0.90736127914015      0.32070060389193     -2.57153850391650
