25
Coordinates from ORCA-job NEB E -42.388810302850
  C          -0.00005009696375     -0.65562157582481      0.80763036197304
  C          -1.10143657807901     -0.46306906160901     -0.05772276766970
  C          -0.19100803265097     -0.46599569222808      2.25366290048259
  H           0.61668494013272     -1.53051542132878      0.61000366618614
  C          -1.29602922575764     -1.40544368104785     -1.23080179202415
  C           1.23940965286370      0.91333081549018      0.01162131555264
  C           0.34591713316154      1.97808632280795      0.21651593208493
  C          -0.82661245010707      2.07461661143899     -0.50218119442042
  O          -1.82670063408834      0.56343884559328      0.05005636115493
  N           2.45472723603251      0.90205641066073      0.61929890801423
  H           1.23796900761284      0.42216127792623     -0.95161751701521
  H           0.46221520528400      2.56138658156119      1.11879465594864
  H          -0.86190246791861      1.74197104932000     -1.52781091469853
  H          -1.53810903772412      2.84123013629050     -0.24372896405232
  Br         -1.15124340903810     -2.13984431451905      2.96588016504699
  Br          1.49023877314316     -0.44519668931066      3.27310220836582
  Br         -1.25287062304130      1.02533213314671      2.84351562301218
  C          -0.14278772978019     -1.46036024800114     -2.23121925953813
  H          -2.20728250405866     -1.09200224345377     -1.74340381322925
  H          -1.46303646749602     -2.40801178662097     -0.82650994222058
  H           0.02285001617846     -0.48796107574117     -2.69032884006636
  H          -0.38624928312949     -2.16641710179730     -3.02167600056902
  H           0.77905277336987     -1.79252316114874     -1.75851488818662
  H           2.55164230030823      1.39614444227080      1.49261830944497
  H           3.04461150174622      0.09320742612475      0.52281548642319
