23
Coordinates from ORCA-job NEB_reactant E -49.402154414820
  C           1.80713547875568      0.20417444665452      0.02765119537023
  C           1.44814029517427      1.08176744580360     -0.90822324821977
  C           2.39537808608193      0.40247786763838      1.39014996277547
  H           1.63778148189764     -0.83260275320826     -0.22615847215381
  C           0.88528967839954      0.57674433579498     -2.22469370094137
  C           3.81664979654674      3.94191453691975      1.41397790943928
  C           3.26111555832380      3.40396980665576      0.33932613093286
  C           1.78315074639578      3.23585259579151      0.15160772143166
  O           1.45973115637704      2.44363768294320     -0.96278213695411
  C           5.29386890218475      4.11493337098919      1.56572565985083
  H           3.25000896219688      4.28926381959216      2.26480086329533
  H           3.87056161386273      3.07472588110066     -0.49251132200887
  H           1.35073339889012      4.21650459511717     -0.08444724310020
  H           1.30209349917986      2.86263650480839      1.06196623363222
  H           3.03120949618385      1.27985599578755      1.45255727382100
  H           2.99360044492468     -0.46891101903771      1.64595473704353
  H           1.60678679173555      0.48703512151524      2.13912221609764
  F          -0.37324166740177      1.03970833544790     -2.42059919291523
  F           1.62000271921706      1.02441758020659     -3.26968731036484
  H           0.85227912306465     -0.52118371383841     -2.28210876456793
  F           5.99278852728514      3.71082543039951      0.49885209304138
  F           5.62977721583587      5.39723175021433      1.78651037271239
  F           5.76755869488818      3.41952038270401      2.61830902178231
