23
Coordinates from ORCA-job NEB_product E -49.418392878770
  C           3.04975770553873      1.14236710629189     -0.01345152945411
  C           1.69135755951352      0.96793942147565     -0.65666624474955
  C           3.19021316402345      0.17633203723904      1.15947727284720
  H           3.80337601724723      0.91243572224296     -0.77729521939088
  C           1.49202786574111      1.67923121840303     -2.02137462253328
  C           3.21811907413939      2.63758517885735      0.37004131160161
  C           2.33164417106420      3.04721121869341      1.51563127909779
  C           1.28099091844350      3.83164524545050      1.37446080685873
  O           0.78646494550940      0.33475961593479     -0.19528414369995
  C           4.67187477737534      2.95416320174210      0.71829771891882
  H           2.99903089407840      3.26102694568001     -0.50371458339590
  H           2.61464461037420      2.66041595992280      2.48387566986001
  H           0.98681245522005      4.23111113353651      0.41827487835690
  H           0.66717773424599      4.10079133900407      2.21577103293498
  H           2.38923546995594      0.33065850992204      1.87698167430981
  H           4.14711534626421      0.29787871257598      1.65628616627582
  H           3.11967437338798     -0.84491319250385      0.79320356508157
  F           0.93858574795369      2.90014188110668     -1.82249015500150
  F           2.66302689265997      1.89054415944583     -2.66249048954273
  H           0.82461047415486      1.10415778730530     -2.68018233203151
  F           5.07154715402204      2.45719789383543      1.89671034791086
  F           5.53409975730775      2.48687229853340     -0.19785913311705
  F           4.86731289177905      4.27854660530510      0.78449672886235
