20
Coordinates from ORCA-job NEB E -46.205651413560
  C           0.63783574012164     -0.07929457744919     -1.07944091459540
  C          -0.53729741800501     -0.85404005130061     -1.13337623071440
  F           1.81189334510623     -0.72602404620061     -0.94264915379472
  H           0.75022476405069      0.76958615933248     -1.75012687656800
  C          -1.78650713260828     -0.23271497240682     -1.72208782761781
  C           0.44492283211109      0.63436500084150      0.66950628974536
  C           0.36038774055100     -0.52527583661886      1.45226654322917
  C          -0.75962320546342     -1.37870953265598      1.24065936511917
  O          -0.66516944486487     -1.84839322663603     -0.30493060455351
  C           1.63913428003466      1.53526534158651      0.88745969361484
  H          -0.44766562159168      1.23448256161132      0.51310109370642
  H           1.27847784471307     -0.95779521470734      1.82230659587511
  H          -1.73681444111960     -0.90113957193587      1.25538805939661
  H          -0.74880362060343     -2.32353815932138      1.76947049382380
  F          -1.74464394954440      1.14031265778918     -1.64732374472443
  H          -2.67397983159374     -0.56833173383045     -1.17536066316145
  H          -1.89152313985554     -0.48734950139955     -2.78267590654058
  F           2.77670562310605      0.88171045237642      1.12325239891538
  F           1.86360992453149      2.35557449050157     -0.14878940435855
  F           1.42883571092406      2.33130976042373      1.95335079320300
