20
Coordinates from ORCA-job NEB_product E -46.245786573140
  C           2.23361897586820      1.91470674997524      1.14224440124621
  C           0.96579102403695      2.55856552140584      0.54602859745006
  F           2.04030905805422      0.55270202817230      1.11465726322054
  H           3.13196005127612      2.11702794492654      0.54915564333711
  C           1.12685455929755      3.33728915098153     -0.74188319560478
  C           2.41022249340315      2.34956864299534      2.60948193298199
  C           3.49880001957480      1.55535098067842      3.28002042920102
  C           3.28864002817420      0.77683366217714      4.32277556270158
  O          -0.10083076766451      2.43089367014310      1.07689555605188
  C           2.76295992346013      3.83100675443650      2.65964788257839
  H           1.45537821235414      2.21222350812473      3.12985211145747
  H           4.48038978786481      1.66037849343712      2.83945154806548
  H           2.31204947466535      0.66306550739658      4.76252228489549
  H           4.08859091622157      0.21787363949796      4.77460041085747
  F           2.41772514361965      3.38503267992705     -1.18157606373558
  H           0.78815095898183      4.36791099455583     -0.58468181637696
  H           0.52265037335938      2.87038400387908     -1.52861138716033
  F           3.93390473218789      4.09917270035442      2.06741350487277
  F           1.84900264709439      4.60248037047403      2.04138605290249
  F           2.85023238817017      4.27903299646125      3.91491928105770
