19
Coordinates from ORCA-job P E -37.444090036250
  C          -1.40567279086842      0.34191496950550     -2.46784768891721
  C          -0.19879192313266     -1.65394447633786     -1.02460577483192
  C          -1.61043178688368     -1.85434800602655     -1.47997215512909
  C          -2.20126749944689     -0.88455239065666     -2.15759768079016
  C          -0.64073251205956      0.85719730636276     -1.23618473719808
  C          -0.08618032486526     -0.27350859236067     -0.34919180666009
  H          -2.11232526382227     -2.77508537638694     -1.23303862320059
  H          -3.21698979731670     -0.92329196018085     -2.51336460471543
  F          -2.22557428924558      1.35173856823752     -2.92498933844626
  H           0.10108496981149     -2.43310228218801     -0.32600581441348
  H          -0.70477725181789      0.13428153647197     -3.29069752202806
  H           0.47503408753472     -1.68604709823744     -1.88490308961366
  H          -1.33590552682382      1.46938014370637     -0.66059352539886
  H          -0.66658662651355     -0.31700908700933      0.57801881126467
  H           0.16370047665013      1.50818918203989     -1.57848501860395
  C           1.35352236267463      0.02074478975500      0.06299039346361
  Cl          1.44938498228179      1.59132217698560      0.90278525718585
  Cl          1.96295589012913     -1.22011969246097      1.18226281756794
  Cl          2.43944282371438      0.07780028878068     -1.34235989953522
