19
Coordinates from ORCA-job R E -37.349927407070
  C          -0.87923807107221     -0.05392455368627     -2.89634888498368
  C          -0.56566799837903     -2.95675938046812     -2.12295966702824
  C          -1.65267025131496     -2.20939752969833     -1.96167136781830
  C          -1.78930770123768     -0.80250832250042     -2.28537741117521
  C          -1.02982285144452      1.34103644424267      0.32196688590289
  C          -0.04437783810395      0.47450777930633      0.46877283459085
  H          -2.54169817959780     -2.65824199120202     -1.53804245106684
  H          -2.71842843469651     -0.32779795413516     -2.00065923986137
  F          -1.10735285791183      1.24901314313141     -3.13063814883965
  H          -0.55920988350235     -3.99779583411536     -1.84914633256335
  H           0.08833370352432     -0.36631844572211     -3.25534690659375
  H           0.35135779661483     -2.56431930785296     -2.52699719894602
  H          -2.02897793796202      1.09457043132196      0.63716850651264
  H          -0.20251788817182     -0.49892894566140      0.91233377957266
  H          -0.88274743471072      2.31288282435760     -0.11625538632357
  C           1.37537264178725      0.71621031959064      0.09052164885501
  Cl          1.63077666391929      2.19801461076375     -0.83739713821282
  Cl          2.36231627729584      0.80734066239000      1.58636535982091
  Cl          1.97825024496387     -0.65596395006223     -0.87570888184215
