19
Coordinates from ORCA-job TS E -37.338192226500
  C          -1.02622998815853      0.81496252563480     -1.37570237943302
  C           0.30096466202475     -1.57596418329605     -0.52873077329793
  C          -1.03016170848037     -1.52417005267828     -0.75706797089301
  C          -1.68763452952135     -0.36110129475706     -1.21577532735269
  C          -0.44841620534988      1.15214770745543      0.72794699246980
  C           0.39485164045722      0.17264083933706      1.15221300027819
  H          -1.65752541057005     -2.34411088299085     -0.43651313902163
  H          -2.76793526181785     -0.34299677243266     -1.22412270498081
  F          -1.72486450156665      1.92499867458032     -1.66912730655864
  H           0.73826327128592     -2.44698586032337     -0.07120276943927
  H           0.01103775170701      0.91980664966267     -1.65316216722006
  H           0.98661491968260     -0.90334233543378     -1.00673679548438
  H          -1.47762365403032      1.13651591233825      1.03790351790354
  H           0.04912892963515     -0.63445375642671      1.77615129752016
  H          -0.05879574446747      2.10289474502272      0.40645890593352
  C           1.86772704531737      0.38296737922531      1.16902474198013
  Cl          2.47348230168946      1.17356388291461     -0.30340968695966
  Cl          2.28292733810326      1.47324620962789      2.55406815485264
  Cl          2.77418914405972     -1.12061938746030      1.41778440970313
