19
Coordinates from ORCA-job NEB_reactant E -48.646163142530
  C           1.74503796588210     -0.00686898466284     -0.14227202464485
  C           1.52666088454565      0.24191546669229     -1.43756835882040
  C           1.63831781637607      0.91324326067669      1.02727955423750
  H           2.00520406068814     -1.02320391289171      0.12185123579638
  N           1.67401794074481     -0.94434204223898     -2.35629973362697
  C           3.04238949346706      4.02235360828336     -2.76324492811596
  C           2.67345053118133      3.13802875657589     -1.85214216725969
  C           1.26441149066239      2.63592965393560     -1.74969192437664
  O           1.18124719354525      1.27314136670257     -2.17563917888356
  Br          4.80647536706084      4.65849812380204     -2.90369795684097
  H           2.36848551907583      4.46061004441453     -3.48296426786219
  H           3.39022554310281      2.72724920330525     -1.15620065695778
  H           0.61420110010878      3.16752767156958     -2.44796569660877
  H           0.87612366700691      2.76036723334865     -0.73668335343463
  F           2.52966540376296      1.92468318150793      0.99856608611624
  F           0.42824952825021      1.49931889948324      1.13278149086382
  F           1.84492423719314      0.25922414731421      2.16904909570563
  O           1.60447549851368     -0.71190325771092     -3.52907522575719
  O           1.85023675883202     -2.01657242010737     -1.84148198952999
