17
Coordinates from ORCA-job NEB_reactant E -29.301897564270
  C           1.77418449949100      0.04166313912104      0.00524087736369
  C           1.11060727418611      0.39217252151866      1.10044897097380
  C           2.12091366985993     -1.37108844099837     -0.33511410318933
  H           2.08507654035237      0.80952656739864     -0.68371918679323
  Cl          0.75902761081382      2.07179231823374      1.40244264267961
  C          -0.21637845812279     -1.41448487078481      5.22756424498477
  C          -0.42160303189360     -1.28412590667263      3.93228428345290
  C          -0.01855791999596     -0.06605581150950      3.16154007974436
  O           0.68472883630025     -0.50678301188162      2.01467246255954
  I          -0.81988699107883     -3.10382647549441      6.31765750535244
  H           0.25549501768638     -0.66121494990336      5.83572293014877
  H          -0.88915016792172     -2.06147641716382      3.34645393267373
  H           0.60909314556669      0.59635292388840      3.77129760826387
  H          -0.92045641575167      0.48766950678076      2.85987520879636
  H           1.76591886372256     -2.04541254278660      0.43732631567544
  H           3.20034717522873     -1.47726911081733     -0.43406199681440
  H           1.67004035155674     -1.64793943892878     -1.28723177587231
