19
Coordinates from ORCA-job NEB E -29.573048605980
  C           0.95869763179771     -0.35765789098022     -0.73928548461622
  C          -0.18953713924488     -1.13892527315469     -0.70090360689701
  H           1.80965571256121     -0.69466558944665     -0.16816059588465
  H           1.20144733693316      0.14476847580991     -1.66448436041017
  C          -1.28224787384716     -0.93815749868184     -1.73609085481982
  C           0.41524352811498      1.11262749855725      0.50264709595540
  C           0.13396992461547      0.34144964479383      1.64213061392148
  C          -0.92897323886532     -0.56453072774372      1.62230390419209
  O          -0.52819383087071     -1.74594322202372      0.37977179609787
  N           1.45241939523879      2.03129832655822      0.53044185128489
  H          -0.42533011504653      1.46625308859391     -0.08565348328418
  H           0.94896704848348      0.16134348549639      2.32975388065397
  H          -1.86417806548453     -0.24812725814235      1.17688103423118
  H          -1.05121911276240     -1.22288044561477      2.46878915308269
  F          -0.82341961351078     -0.29318338898529     -2.85632837381852
  H          -2.09457089119554     -0.32388367751913     -1.32260009853170
  H          -1.68869166338450     -1.90356265422056     -2.05425528220577
  H           2.27323233049531      1.72333234928592      1.03260499191340
  H           1.68272863597225      2.45044475741751     -0.35756218086494
