19
Coordinates from ORCA-job NEB_reactant E -29.604277675280
  C           1.03294970450369      0.49480843644566      0.28047010891489
  C           1.48507821119522      1.38993670842916     -0.58613535768958
  H           1.20749949270618      0.55699635568425      1.33779275137405
  H           0.45937185084263     -0.34206117957965     -0.06979502776635
  C           1.24049119128540      1.30657369251002     -2.07352926224122
  C           2.99395041456276      5.13222232646213      1.65163569324438
  C           3.39744082354854      4.00702879598990      1.06636272614793
  C           2.57724138185871      2.76095713638354      1.02787616983603
  O           2.22157963163388      2.50331331896248     -0.32738839823200
  N           3.75913933746027      6.27072556376638      1.78946617900878
  H           2.03520298750926      5.18053074206166      2.15087028988106
  H           4.35118414890376      3.96038933723308      0.56229073363948
  H           1.66858936659149      2.87882773521043      1.63217442719784
  H           3.15070554116403      1.90548582472143      1.41428667495871
  F           0.46362808736864      0.23256794233370     -2.40901509809675
  H           2.19066141913139      1.20261626997988     -2.60991959540760
  H           0.72336118983188      2.20744755064860     -2.42267905920084
  H           4.56380084971503      6.32053099301623      1.18287056468014
  H           3.25472437018725      7.13880244974110      1.86776547975106
