14
Coordinates from ORCA-job NEB_product E -26.330123142400
  C           1.09098946078819     -1.29433519880034     -0.70393254035207
  C           1.95069141258263     -1.23783962120564      0.52938800041595
  F           1.91150151192025     -1.19138398486888     -1.80150509333259
  H           0.39409466361428     -0.44893170209223     -0.74455394392856
  I           0.86606112607513     -0.44342243627251      2.23019886415671
  C           0.34817337124126     -2.64011532211478     -0.77160628507227
  C          -0.77077175276147     -2.74393824717186      0.21544870704473
  C          -0.89186825064341     -3.72259988643127      1.09259648576380
  O           3.06898572884425     -1.58364934596010      0.64825579945653
  H          -0.05138197205465     -2.71263353403146     -1.78813301350741
  H           1.06811186671848     -3.44961831351702     -0.63214905575910
  H          -1.51595497426202     -1.96155299990064      0.15826146515082
  H          -0.16490418585383     -4.51492006208787      1.16512362980002
  H          -1.72242800620910     -3.77105934554540      1.77410698016343
