14
Coordinates from ORCA-job NEB_reactant E -26.305605497650
  C           1.86459240376822     -0.21536093028802     -0.11510224537809
  C           1.32857005231884     -1.13179487967090      0.68120653466986
  F           2.59835090584642     -0.56128396343665     -1.18501584782470
  H           1.78000939937916      0.84959335444064      0.01973975307767
  I           0.17163048111551     -0.37706448454875      2.31763158520975
  C          -0.88573713866200     -4.12600711630367     -1.25423739138017
  C          -0.52492368908536     -3.15492558177041     -0.43850495413561
  C           0.44201045720584     -3.32806385399086      0.69206367144078
  O           1.55011587809377     -2.43739987683808      0.60493094500738
  H          -1.59166640285678     -3.96389508073669     -2.04991679321470
  H          -0.49666484845589     -5.12547328350716     -1.15234012314626
  H          -0.92091934553964     -2.15381594723204     -0.55507795488140
  H           0.88520049835467     -4.32511860938607      0.68676138937303
  H          -0.07236865148276     -3.16558974673134      1.65256143118246
