20
Coordinates from ORCA-job NEB E -53.462694869740
  C          -0.27951165661189      0.89210974902012     -0.50883312519469
  C           0.08088277274932      1.64691498621489      0.62912674236300
  C           0.30245819207016      1.20936816860760     -1.86731741816880
  H          -1.35395863395444      0.72998276096735     -0.57858730565377
  Br          1.84869244506934      2.41063837383723      0.74572926468647
  C           0.19856368338924     -0.85671516553076      0.15157869325315
  C          -0.41809149959420     -0.93517031553192      1.41065278371208
  C          -0.04441210908037      0.00204251111408      2.40844007110916
  O          -0.49044019077480      1.42216460778324      1.74055521851802
  C          -0.29327421099619     -1.89921578560154     -0.83167646568037
  H           1.27718120826630     -0.73651285899279      0.10392455986325
  H          -1.40432772946926     -1.37401827606054      1.46368816277158
  H           1.01979936688699      0.16919587450230      2.55997603831785
  H          -0.60598848794238     -0.01858946464514      3.33366379444350
  Cl         -0.69089625619421      0.48542751042357     -3.15878076535086
  Cl          0.25269062860917      2.98575157123961     -2.11299073527601
  Cl          1.97942116202996      0.66738816648138     -2.07028924169175
  F           0.41335068056962     -1.94914640065911     -1.96065168764104
  F          -0.21301153516917     -3.12761231291869     -0.29075515469874
  F          -1.57912782985318     -1.72400370025090     -1.16745342968202
