20
Coordinates from ORCA-job NEB_product E -53.499361319700
  C           1.72077604720999     -2.16485740548500      0.59368059791379
  C           2.96356825251374     -2.43659092925097      1.44282702103677
  C           1.94501196126739     -1.74110224467074     -0.86387739396613
  H           1.24404162390176     -1.30056990596459      1.08188724771013
  Br          4.63261382357780     -1.64127399206972      0.91741083064369
  C           0.74333074304928     -3.35129157014999      0.83386496156173
  C          -0.70640940183154     -3.02871613925139      0.55779184735679
  C          -1.39585804215066     -2.15494419834454      1.26640142119876
  O           2.93704350904992     -3.05253159227579      2.45419287206889
  C           1.13904497381137     -4.64583782622848      0.12408768409908
  H           0.84109961903400     -3.58723992543596      1.90370839247178
  H          -1.17249084973723     -3.58290640879229     -0.24263152191851
  H          -0.96089893884005     -1.59917912990864      2.08111931867018
  H          -2.43112940266972     -1.95933502041388      1.05523599925883
  Cl          3.10195422451873     -2.76831424007527     -1.73075512444693
  Cl          0.40866342982908     -1.74343724920208     -1.76897941622260
  Cl          2.52360104437923     -0.04599314705130     -0.89876367724222
  F           0.86436585208028     -4.66591345385799     -1.18341709418974
  F           2.44314398770372     -4.92538122689640      0.25183616999587
  F           0.47292754330291     -5.67908439467501      0.65957986399987
