20
Coordinates from ORCA-job NEB_reactant E -53.493954750080
  C           1.45909677994608     -1.23457968111902     -0.20605821081853
  C           2.26150574782103     -1.16607442594456      0.85884190835887
  C           1.63899376251190     -0.47125811702523     -1.46476713780949
  H           0.60913389740716     -1.89836068011460     -0.19173042352012
  Br          3.79287295999656     -0.07370474947919      0.95604541469545
  C           0.00513246922272     -4.53441283406176      0.93117187576016
  C           1.07898576036557     -3.90623142052252      1.38012737930736
  C           1.03654465999411     -2.67434413303013      2.23076197824609
  O           2.14704320669153     -1.82045276709198      2.01984890657521
  C           0.07950464217808     -5.78967019171501      0.11723779484591
  H          -1.00409941057246     -4.20079692996543      1.12186680887916
  H           2.07074170787291     -4.28208137543401      1.16421871578428
  H           1.12845561540687     -2.96602646964477      3.28315890027296
  H           0.09700062908964     -2.12509676968271      2.09636648394412
  Cl          3.19513893268494     -0.86384330498748     -2.25904894246873
  Cl          0.33103200016150     -0.87785965151795     -2.59674859206654
  Cl          1.59190566233673      1.29576255800274     -1.18164175113008
  F           1.33111897813697     -6.21078106073345     -0.09417828732485
  F          -0.57643977602008     -6.80194377362086      0.70839666268357
  F          -0.48516822523176     -5.62754422231207     -1.09066948421481
