19
Coordinates from ORCA-job NEB_product E -48.651153981060
  C           2.37912011804302      1.85305085083666      1.21053996138697
  C           1.17849241564143      2.63458184663927      0.77374582154937
  Br          1.77467911536902      0.00704888768847      0.87678186986239
  H           3.23713398261437      2.00881358486310      0.55079348769548
  N           1.17565738250612      2.93417336235515     -0.74846156778554
  C           2.72076148789926      2.05803363185147      2.68646754384006
  C           3.64294238693356      0.98918091638215      3.21114483041798
  C           3.37023213405329      0.25810706531649      4.27384180684455
  O           0.24396667961459      2.97971180623707      1.40994679866563
  C           3.40934818817696      3.41928942938003      2.82592891965874
  H           1.79892951370329      2.09620428888956      3.27905901274025
  H           4.56079026935729      0.86104256757240      2.65448512449627
  H           2.45902398155916      0.38098405442804      4.83523932428725
  H           4.05112596055058     -0.49793570624581      4.62131254679324
  O           0.16991218133342      3.42454718092898     -1.16954588248572
  O           2.18126801339162      2.65775043431727     -1.35400774944457
  F           4.59777619750728      3.44329745400358      2.20815757303400
  F           2.68628017072783      4.41241493575485      2.28241921155287
  F           3.61885982101792      3.73910340880125      4.10185136689077
