17
Coordinates from ORCA-job NEB E -32.615414076970
  C           1.08608399296802     -0.08636079062413     -0.31001452577542
  C           0.39197830869163      0.70339760254401     -1.23461362383578
  C           0.97029927503719     -1.57916956752977     -0.36677739910135
  H           2.12450834734516      0.19527730435458     -0.13779751515322
  H           0.82378716853247      1.67126289353824     -1.49908861921696
  C           0.16476889283889      0.51389330727624      1.29186308274658
  C          -1.17328391296751      0.29876066308456      0.99253517661602
  C          -1.72970903040633      1.00930914638429     -0.12284007143484
  O          -0.89288484651972      0.54270191607206     -1.38832165852527
  H           0.61199207164441     -0.06287368930298      2.08923428097166
  H           0.54019085516438      1.52819788091637      1.24572277286105
  H          -1.64629816930885     -0.62252482785035      1.29700022950540
  H          -1.57090212471654      2.08627795689170     -0.12641882688174
  H          -2.74415215556686      0.74304501201435     -0.39743228673659
  Br         -0.75983124299175     -2.30817481983125     -0.80357301915491
  Br          2.20614727521082     -2.17654722870465     -1.80014466645356
  Br          1.59730529504460     -2.45647275923324      1.27066666956893
