17
Coordinates from ORCA-job NEB_product E -32.657784862790
  C           1.61651014720356      0.60114188395606      1.47419037364363
  C           0.73318010892797      1.13326622095104      0.36101693750577
  C           1.46619366125480     -0.90323890057028      1.61886049556247
  H           2.65456334134053      0.79490684445247      1.16341169841673
  H           0.86727810816505      2.21858815556402      0.20373178727118
  C           1.37647685548007      1.42431851908654      2.76111848964014
  C          -0.00897753744021      1.28274490285852      3.32459279169507
  C          -1.03391189119417      2.01913883021239      2.93836858830237
  O          -0.02278767872522      0.48372505315163     -0.29444673592784
  H           2.11398752397456      1.13115273157925      3.51072510718264
  H           1.55910101053895      2.47047683945293      2.50252561817644
  H          -0.13675524353513      0.53357171514391      4.09330485753994
  H          -0.93926439895969      2.78125590623721      2.18146009111087
  H          -2.01406678799887      1.88747358102382      3.36049474337753
  Br          2.13465673162795     -1.77328775287798     -0.00982400709597
  Br          2.54820863279569     -1.57133312359191      3.10416919388249
  Br         -0.35739258345583     -1.50130140662962      1.89489996971655
