17
Coordinates from ORCA-job NEB_reactant E -32.654957632670
  C           1.52221137645200     -0.02639562168125     -0.20431504627383
  C           0.91021544458070      0.95331550217613      0.46998947261601
  C           1.96027875066938     -1.24380155998233      0.49911435186621
  H           1.70689375535155      0.05354298640092     -1.26117925376601
  H           0.57948566459042      1.85722573975277     -0.02878257750556
  C           0.01196405070979      2.17214473407900      4.92587621044995
  C          -0.25165274644015      1.45616956391023      3.85087303890759
  C           0.04481989329633      1.90345234831482      2.45260967587634
  O           0.68850554370086      0.83086142362702      1.77916301074244
  H          -0.22821539885976      1.81707747846896      5.91227503337481
  H           0.46942563754931      3.14608515910802      4.86475009000580
  H          -0.70036103289440      0.47554382742932      3.91836837071514
  H           0.69463920679269      2.78767416671954      2.45161199566420
  H          -0.89208335944122      2.15069448960929      1.93116273217390
  Br          2.79400447328392     -2.51162753887800     -0.71084136759162
  Br          3.25696886742402     -0.82711837010253      1.93138196721528
  Br          0.45049987323457     -2.15614432895192      1.37864229552935
