16
Coordinates from ORCA-job NEB E -33.436001027510
  C           1.12651796299408     -0.17271618130881      0.56856095591635
  C           0.37391791743020     -1.34725393940660      0.49054227876337
  N           0.78490363955242      0.81100209532656      1.57318500234681
  H           2.19991189574955     -0.25184619803788      0.43186578010459
  F           1.05143140253910     -2.42541889983478     -0.00729142950489
  C           0.38015873020972      0.77164090059337     -1.02492226420060
  C          -0.97699819584846      0.71401983796704     -0.76473842298027
  C          -1.60720459645613     -0.56150689033096     -0.73780537231630
  O          -0.87989310893668     -1.41997060205761      0.48831820961053
  H           0.88263860476945      1.72765422709517     -0.98148336847706
  H           0.81033054653956      0.08160890796922     -1.73794661421878
  H          -1.45275515395945      1.52495262328556     -0.23486820964434
  H          -1.39057894668720     -1.23884547994299     -1.55892224054924
  H          -2.64148538117965     -0.58989998513250     -0.42119390588500
  O           1.71389438041969      1.43135691888301      2.03920995347835
  O          -0.37478969713618      0.94522266493222      1.87748964755649
