16
Coordinates from ORCA-job NEB_product E -33.480239637650
  C           1.66397266678066      0.88575618406508     -1.56379919904463
  C           0.96074484554760     -0.38157945474333     -1.13079745676369
  N           1.53547720187398      1.90502780468001     -0.46955794319548
  H           2.73396271479142      0.66800502660737     -1.66739885192964
  F           1.34908463735434     -1.40196161594039     -1.93552046905696
  C           1.06381785370921      1.36701221723160     -2.89577800768217
  C          -0.43831823219802      1.31615165670705     -2.87826359140464
  C          -1.14816210894577      0.50597978409219     -3.63893830954154
  O           0.17195860342301     -0.55594879842508     -0.27994577236659
  H           1.39381602731719      2.39460000548604     -3.06680955133474
  H           1.44824637916229      0.73355507784202     -3.69678144833367
  H          -0.91722209235474      1.99588737617639     -2.18819238847681
  H          -0.68572858477459     -0.17700453408142     -4.33336154575088
  H          -2.22303567814597      0.49331660826248     -3.60198844083048
  O           2.06956090880934      1.61312633565011      0.56740032867206
  O           0.93852485765006      2.91777632638987     -0.70766735296014
