16
Coordinates from ORCA-job NEB_reactant E -33.465387595900
  C           1.90312636293914      0.03337471110616     -0.09585835617637
  C           1.21517955252628     -0.08188449740851     -1.24920241653611
  N           2.05812301333739      1.25500470307808      0.59577536853170
  H           2.37214915413835     -0.82558899512424      0.35321103241353
  F           1.13319899105172     -1.30367313651367     -1.80137216698442
  C          -0.62067675776577      2.17627548567478     -4.94078428875778
  C          -0.58119225073996      1.89479672050544     -3.65338606218859
  C          -0.09692789548161      0.59067845493977     -3.10015819574180
  O           0.61934498218108      0.87281056696531     -1.89246738758072
  H          -0.99519446053226      3.11836813301262     -5.29911497600488
  H          -0.29253094548825      1.47411324106884     -5.68975660920754
  H          -0.90172755082274      2.60152832989640     -2.90276706909170
  H           0.55252519731074      0.07015471216355     -3.81276612509205
  H          -0.94877090346376     -0.06236544134958     -2.86246191046008
  O           2.71479517507690      1.21685391222672      1.61724206901824
  O           1.53617833573275      2.25385309975833      0.14476709385858
