21
Coordinates from ORCA-job NEB E -53.515825808280
  C           0.56434293386478      0.84510846033268     -0.23085289636883
  C          -0.25578096276493      1.10498247084295      0.88842135475704
  C           0.10894243613520      1.31740659122361     -1.58625635813458
  H           1.61496371496949      1.10102952802916     -0.06350204920190
  N           0.42130037351731      1.21462184972781      2.16786515996147
  C           0.50744390173720     -1.06379905499762     -0.12797677383382
  C          -0.84592783230753     -1.39548835703429      0.01040219842653
  C          -1.62627724026620     -0.82117683782291      1.08319924953142
  O          -1.49315690837344      0.69047071076450      0.92982525867200
  N           1.16120131727758     -1.65684645837823     -1.30677450434731
  H           1.18908713045645     -1.11609618928655      0.71877012013380
  H          -1.34636533301029     -1.83584692404615     -0.84131130640165
  H          -1.25910477932646     -1.00680436584946      2.09673897695795
  H          -2.69333423717427     -1.01088899248223      1.01160219596223
  Br         -0.02786907765040      3.29188385846933     -1.45500533357764
  Br          1.43512127763686      0.95704216722833     -2.97767842320613
  Br         -1.61950015865312      0.66524366704689     -2.15171804898016
  O          -0.23348868694150      0.92994479854275      3.14683040900306
  O           1.59116164955340      1.54149733558056      2.15503034957025
  O           2.33976791872378     -1.87228856304263     -1.20152411811598
  O           0.46747256259610     -1.87999569484851     -2.26608546080773
