21
Coordinates from ORCA-job NEB_product E -53.542682856260
  C           2.30256971497739     -1.68756649617127     -0.34714879328589
  C           1.55819046987291     -1.16042648534754      0.84723546526431
  C           2.10112008039435     -0.75666315832489     -1.54181015837239
  H           3.38224502124991     -1.69240345573504     -0.09919854712137
  N           2.06678271439927     -1.75403973409255      2.19544911765222
  C           1.96089114784727     -3.18223018083367     -0.57913008946605
  C           0.76023352882444     -3.48124335430982     -1.42329010212179
  C          -0.39503122292452     -3.86565597053141     -0.91155693837030
  O           0.67558082450023     -0.37893745719161      0.91057100067990
  N           3.17881445664152     -3.88886132871649     -1.15471278247771
  H           1.83792579348709     -3.65999576733235      0.40148597336770
  H           0.89375781923388     -3.40414046907517     -2.49257537428854
  H          -0.55020585164968     -3.97128959510893      0.15001545683365
  H          -1.23935237481182     -4.07729990432517     -1.54168955322019
  Br          2.89848997653980      0.98682220286100     -1.09200470480482
  Br          3.01820735481413     -1.43615921041708     -3.12965905322850
  Br          0.23609643948354     -0.45132336289568     -2.01246970506636
  O           1.52698125620342     -1.32064540258611      3.16914281379127
  O           2.93671509755683     -2.58760623193652      2.13094230774037
  O           4.25520302787704     -3.41254255908655     -0.91635866389589
  O           2.95058472548303     -4.89429207884317     -1.76163766960962
