21
Coordinates from ORCA-job NEB_reactant E -53.545323727490
  C           1.97862179594042     -0.29779013011384     -0.35150624054467
  C           1.58495321702117     -1.20258524999797      0.54769099904025
  C           1.28080839909355      0.09129843749927     -1.59234330034771
  H           2.91313219118785      0.21393319453695     -0.14696537347795
  N           2.46639486412623     -1.37751780366215      1.74687313123060
  C           1.99585700865390     -4.59808328605444     -1.31210554923931
  C           1.47882792858353     -4.01082109112897     -0.24165241819655
  C           0.32985524265621     -3.06065434670306     -0.28668977642944
  O           0.49889686916516     -1.97203471842380      0.62505278651537
  N           3.09883237478583     -5.51759001287717     -1.19670067665010
  H           1.65233898158936     -4.46279219654853     -2.32679817328784
  H           1.89698864604247     -4.21255507878765      0.73951413603304
  H          -0.57444997043491     -3.55742344474549      0.07904800508325
  H           0.14767880728117     -2.70912576404117     -1.30731957483577
  Br          1.78911820358839      1.90314490659085     -2.12108071597167
  Br          1.82979193812849     -1.14123576632873     -3.06560353167673
  Br         -0.66535437214430      0.03589617556299     -1.43708970858181
  O           2.23341414919889     -2.34166643740057      2.42345820871673
  O           3.33064149822714     -0.55724981088802      1.92073137573689
  O           3.58214492629727     -5.69274059197071     -0.10245843224518
  O           3.46420730101217     -6.04540698451776     -2.22145517087139
