21
Coordinates from ORCA-job NEB_product E -41.759429156610
  C           2.99060554337031     -1.36633061974300      0.25346258720431
  C           1.59831214108601     -1.11387240757800      0.78532106966551
  C           3.25485427922819     -0.43343308882189     -0.81873100854642
  H           3.74310650721662     -1.21921156181702      1.03405983907761
  C           1.54190683677446     -0.87950530104718      2.31006086611561
  C           3.07555748660270     -2.83635102577033     -0.26911565232567
  C           2.08519950649089     -3.05826837929911     -1.37122180623955
  C           1.06964189472152     -3.89624917834437     -1.28804582903496
  O           0.60405171538298     -1.10604508382490      0.12619470554611
  C           4.49941617860802     -3.11826489422309     -0.74730635514121
  H           2.83927359174752     -3.49367390141676      0.57382284648337
  H           2.25345815909792     -2.47636675107644     -2.26706602658703
  H           0.88394627998439     -4.47860437214451     -0.39981363958200
  H           0.38076323491610     -4.03498471653224     -2.10225362790511
  N           3.48253947206534      0.30170569423024     -1.66191106034543
  Cl          2.44917155612843      0.61728440350549      2.65783108917571
  Cl         -0.12539500427236     -0.70906583854150      2.85971722420738
  Cl          2.30839657887728     -2.24468408441948      3.14825458747561
  H           4.76741776687460     -2.45430376325112     -1.56630636439326
  H           4.56771070245885     -4.14508020720127     -1.09793925961456
  H           5.21316557264024     -2.98159492268353      0.06218581476399
