21
Coordinates from ORCA-job NEB_reactant E -41.759528779880
  C           2.20398511578429     -0.31712151798492      0.10879299979592
  C           1.56371729253545     -1.19750898200014      0.89929881055648
  C           2.41373609745933     -0.41018361752226     -1.27388859186676
  H           2.61562391048977      0.57739622390993      0.55356550581483
  C           1.48454538545735     -0.95127434826903      2.39209529032696
  C           3.45247340139886     -3.50882293158934     -0.31427355775940
  C           2.45066268165450     -3.27691078892297     -1.14560374759678
  C           1.06621981400257     -2.86547383123147     -0.73255424485614
  O           0.98257281889409     -2.35876167777174      0.59287607443435
  C           4.82106716341006     -3.91172469431178     -0.74078043275176
  H           3.31119975779094     -3.40466088292307      0.75416352102813
  H           2.57924525537328     -3.37732226139691     -2.21336338476049
  H           0.39993555849685     -3.73549679803976     -0.72230312642507
  H           0.66382561619009     -2.13087637207036     -1.43980287659771
  N           2.61505737788061     -0.39599745074812     -2.40450148363820
  Cl          1.38478990132398      0.77009307246235      2.79427418905353
  Cl          0.08501060232591     -1.77287387459764      3.10190838701587
  Cl          2.97212186346548     -1.61747905451397      3.13548671082861
  H           5.54848758072006     -3.17588944364756     -0.39985943125246
  H           4.88394152725152     -3.99442513046864     -1.82223234755724
  H           5.08638127809501     -4.86858563836260     -0.29269826379265
