21
Coordinates from ORCA-job NEB E -28.981092323450
  C          -1.34306459809707     -0.21989003062512     -1.11850287773382
  C           1.12826552321564     -2.11640370805268      0.14908605086611
  C          -1.74730565391658     -1.58767311645850     -0.70020522570707
  H          -2.24458515756594      0.42563599018423     -1.11087066242070
  O           1.91758387344784     -1.47881994041444     -0.74328831107555
  C          -0.14625518269323      1.12587076419959      0.27307882213086
  C           1.06450046586462      0.97002570990195      0.79474369239589
  C           1.64954348373595     -0.21705277040672      1.49401958364996
  O           0.99004987529332     -1.46604381053109      1.25067539778659
  C          -0.61004766965313      2.42375158913565     -0.30079406079611
  H          -0.88719360447687      0.31576572035306      0.33808098170460
  H           1.74334303391809      1.81423567040749      0.77635688500062
  H           1.58619766837916     -0.07421085683628      2.57934411348329
  H           2.70427131944518     -0.31716567819951      1.21177474211166
  H          -0.89020635748575     -2.20028351658973     -0.40609024857657
  H          -2.13673239033475     -1.99739009120936     -1.63855470881743
  H          -2.54064398784347     -1.67373442723731      0.05240016929265
  H           1.95513652008249     -1.98473249000703     -1.56245457896176
  H          -0.78063321093022      2.32905697727143     -1.37038957610012
  H           0.13356046302339      3.19885916204984     -0.13356806196886
  H          -1.54578441340868      2.73019885306454      0.16515787373576
