16
Coordinates from ORCA-job NEB E -31.117883451450
  C           1.04349504871913      0.91131134379355     -0.33367205907645
  C           0.73560701476480      0.76624791095424      1.01429478164502
  F           0.43849370476173      1.88840879008955     -1.04119920883033
  H           2.06140443805643      0.75261479649994     -0.67240103989154
  O           1.63322710566019      0.02766110715374      1.73991380678618
  C          -0.06069100520716     -0.69408494877302     -1.03764656340889
  C          -1.30535455992175     -0.31863524698505     -0.54623018003633
  C          -1.51355470495861     -0.28831857524301      0.84365786107356
  O          -0.44516980431042      0.92424082721856      1.46952872363390
  O           0.13820427632159     -0.66091924688087     -2.37959205711692
  H           0.52300164841672     -1.43193658056749     -0.48896569977372
  H          -1.91874079542008      0.29138364356385     -1.19036069641117
  H          -1.13096560338276     -1.11979434690078      1.42573812146551
  H          -2.45721126384616      0.09617007675381      1.20019443167630
  H           1.24877884060242     -0.14661785360646      2.61032576759790
  H           1.00947565974392     -0.99773169707055     -2.61358598933302
