16
Coordinates from ORCA-job NEB_product E -31.159075097760
  C           1.16080174913417     -1.48328659663408     -1.34299450248964
  C           0.84273090005914     -1.03953222351535      0.08539019231433
  F           0.54083527917382     -0.64565794284354     -2.23778259385658
  H           2.23764365555631     -1.41641772355781     -1.55582086261385
  O           1.63867920924881     -1.59834243596980      1.01322640804192
  C           0.65467010611604     -2.93484631390859     -1.59190299850448
  C          -0.84082654502699     -2.96788753267794     -1.43127426001296
  C          -1.45582163606599     -3.52138157675018     -0.40497655486864
  O          -0.03979725375556     -0.29702882805783      0.37661465420789
  O           1.08684423802211     -3.38167714653303     -2.84782113781375
  H           1.13059317953429     -3.60201835694978     -0.86402812252179
  H          -1.39371370444517     -2.47773268752043     -2.22073976697634
  H          -0.91590128329834     -4.00598574006172      0.39193918578541
  H          -2.52772098761895     -3.50852217147610     -0.31766839116955
  H           2.33585110426777     -2.15913785393817      0.64790813147835
  H           0.64693198909855     -2.85684486960565     -3.52946938100032
