16
Coordinates from ORCA-job NEB_reactant E -31.145923454260
  C           2.14169122643902     -0.16243358214972      0.15845819727280
  C           1.34664635546722     -1.23405812035156      0.21135719483460
  F           2.34907277453654      0.51380445156036     -0.99606434772021
  H           2.67729592955771      0.25153650042530      0.99551951518554
  O           1.13416776353323     -1.91436995942322      1.37388672678756
  C          -0.53170191955268     -4.33126326695110     -2.64203405319504
  C          -0.72290854791792     -3.17466910925687     -2.02280531365136
  C          -0.13152630417060     -2.84399718077123     -0.69347375126099
  O           0.71081372860853     -1.70430908487323     -0.86923044744946
  O          -1.04122455800636     -4.68072828277591     -3.84087755551460
  H           0.04875295439974     -5.13545323723997     -2.21291370316434
  H          -1.30009901064919     -2.38652765215662     -2.48591090455848
  H           0.45336451901866     -3.68477636963860     -0.30535830712124
  H          -0.91743439634822     -2.59854356411496      0.03358755659313
  H           1.63413090405546     -1.51020120005191      2.09068309230303
  H          -1.53524141897114     -3.94081034223078     -4.21762389934093
