16
Coordinates from ORCA-job NEB E -29.718857775570
  C           1.19882027106159     -0.99224307227057     -0.39662007832798
  C           0.61945364791178     -0.48296393068577     -1.52651482825258
  F           2.33229842178357     -0.40846130186147      0.06912385035198
  H           1.14225226087267     -2.03246578864584     -0.11307715449145
  I          -1.00735957476885     -1.82074347448047     -2.19961476618778
  C          -0.17915242949562      0.06423714836514      1.07242071135125
  C          -0.81034035998257      0.98472888068526      0.23063638283694
  C          -0.08645968018699      1.85753169476055     -0.54917697325339
  O           0.61243928177714      0.67779963888359     -1.92753247046093
  N          -0.88870598753410     -0.89091213544455      1.71369086576652
  H           0.75700214216970      0.33742933255027      1.54061436833412
  H          -1.84250049236084      0.78673841728161     -0.03035581168177
  H           0.90968644649813      2.14619563430951     -0.25132838467452
  H          -0.59147592952936      2.53151826953233     -1.21982450977226
  H          -1.75542875724008     -1.19585557105403      1.29873847247653
  H          -0.41052926097619     -1.56253374192557      2.28882032598532
