16
Coordinates from ORCA-job NEB_reactant E -29.744488865330
  C           1.99944396015989      0.08294137347091     -0.02127834529628
  C           1.35580671389455      1.22872236319482     -0.20215070700706
  F           2.91862828008011     -0.05680548085059      0.95084994059355
  H           1.87201024640504     -0.80403713290862     -0.61804122532481
  I          -0.09753132582788      1.22516465938411     -1.77995657910442
  C           0.02539274358051      2.35828427814455      3.32524130509654
  C          -0.23953940468048      2.27470068177079      2.02042052989580
  C           0.48763601023804      3.07926018673620      0.99901410856272
  O           1.60046429950849      2.36312766209042      0.42772758955924
  N          -0.64451392432596      1.68323571816333      4.31123925907796
  H           0.76445152091705      3.06154875338232      3.68554684549255
  H          -0.96881729786470      1.56523074618018      1.65445956458323
  H           0.94905708827513      3.96557353606706      1.43622769394132
  H          -0.18170004161941      3.37896053592631      0.18155232084198
  H          -1.20355982356389      0.89879294967465      4.01443119793207
  H          -0.16822904517649      1.55519916957355      5.18771650115559
