16
Coordinates from ORCA-job NEB_product E -29.749557130060
  C           1.32648077565162      0.62985649267271      1.35681645575356
  C           1.78611272826273      1.28137332032300      0.08449373725009
  F           2.43786487317742      0.25108957013526      2.07309101295014
  H           0.73115514801056     -0.27136050102928      1.18196018970118
  I           0.46340927821264      0.86147928716945     -1.57537474526573
  C           0.52565494103326      1.64174196902776      2.21976666644592
  C          -0.57901011707193      2.28306750934576      1.42943864450689
  C          -0.58646731369016      3.55288120832962      1.07127787138151
  O           2.72688975997766      1.97298601741186     -0.06712742464486
  N          -0.05271490005232      0.88150856889423      3.31253090867682
  H           1.25216785677332      2.41195550600970      2.53909494914980
  H          -1.40382140212813      1.62407316726843      1.19876108082852
  H           0.22856369653278      4.21777045186509      1.30906604020909
  H          -1.40309641311300      3.97740892909054      0.51423804386802
  H          -0.62133402937155      1.47979264600767      3.89972987056551
  H           0.67354511779511      0.46397585747819      3.88403669862353
