18
Coordinates from ORCA-job NEB E -39.107521810710
  C          -0.08641994871102     -0.47358643129833      1.32914935599058
  C          -0.74349977714448     -1.49213691755655      0.63956441537409
  C          -0.87712806348326      0.50575446177226      1.97853319207352
  H           0.84003424042269     -0.72381946388890      1.83370124903661
  F          -0.02904574526077     -2.64245751919585      0.48514646515188
  C           0.44703215996462      0.72523722457586     -0.31063387591647
  C          -0.16944063940627      0.13320993993887     -1.40251523501049
  C          -1.55534013807945     -0.07785711451147     -1.34269844387736
  O          -1.71722573679583     -1.34669019067581     -0.12578427876703
  C           1.95115729685481      0.76733384342998     -0.24301677097885
  H          -0.01675013211820      1.58997423621759      0.14807585478786
  H           0.42043873102130     -0.53460966847109     -2.01844691543963
  H          -2.04416750465280     -0.58307599953284     -2.16243698481898
  H          -2.16286045747128      0.66723068583814     -0.84400177988700
  N          -1.50939445360938      1.30860171871614      2.49425228426655
  F           2.37331136131859      1.18240266590166      0.97446026889116
  F           2.49480975771126     -0.45582992977201     -0.43874805397566
  H           2.38448904943946      1.45031845851237     -0.99460074690079
