20
Coordinates from ORCA-job NEB_reactant E -36.485038564270
  C           2.28807353469960      0.56019852787308      0.36771327243326
  C           1.55892721594280      1.64207872016782      0.00899307340920
  N           2.18502826952629     -0.23693008728962      1.52189147394410
  H           3.09576978169394      0.25003999931241     -0.27717733705836
  C           1.78739590718900      2.24367987501497     -1.34970950433539
  C           2.79392308690270      3.11401557321934      2.53662594763910
  C           1.77834214116610      2.33573031497920      2.88880858092024
  C           0.50233702384434      2.23308227522266      2.10471576798992
  O           0.68267564226274      2.36248511737236      0.69663642859955
  O           3.96968059133596      3.22752486392313      3.18256710352666
  H           2.76496858270795      3.74746809988489      1.66040141584773
  H           1.83968509175885      1.71506875993783      3.77138976843823
  H          -0.18089749863146      3.05380810444261      2.34925918709701
  H           0.01216804360407      1.28049574127963      2.33704895133673
  O           3.21497791368315     -0.73089060796284      1.94758317641157
  O           1.08233261944339     -0.44474869472254      2.00646149924987
  H           2.59385118685188      2.97358172256480     -1.29690580215267
  H           0.88539874657866      2.76107429361930     -1.66465807312646
  H           2.05161388389740      1.48439410422863     -2.07786210713907
  H           3.99274823554265      2.63094329693236      3.94261717696877
