15
Coordinates from ORCA-job NEB_reactant E -31.300956923540
  C           2.07132753840521     -0.02196112135352      0.16892919712260
  C           1.29013670065560     -0.62907219757025      1.05732994588852
  F           2.35417464793249     -0.58232684989278     -1.02065245994373
  H           2.52920691711333      0.93755753444908      0.33020627980194
  F           1.05937481354570      0.01483180554215      2.22236075658958
  C          -0.38844142169416     -4.72479399524657      2.24881866501748
  C          -0.66847786988147     -3.61348879523784      1.58047027530934
  C          -0.15115851343693     -2.27095587635436      1.97173425650369
  O           0.70961550512550     -1.81497752173121      0.91953063835340
  O          -0.82175329926231     -5.96167555577396      1.94461332672115
  H           0.21419730485847     -4.72953232209076      3.14620679517645
  H          -1.26499158222646     -3.64303566983260      0.67951437491962
  H           0.40906486990587     -2.32908204236871      2.91146583052228
  H          -0.97500924474025     -1.55472900214714      2.09281585867661
  H          -1.34096636630059     -5.94305839039154      1.12975625934108
