19
Coordinates from ORCA-job NEB E -42.629285621670
  C           0.52993556233170     -0.93352551121802      0.45184703184558
  C          -0.78646535002007     -0.92882418096771     -0.06007005140078
  C           0.71101545416399     -0.75307710223169      1.84603956486784
  H           1.24887422646714     -1.61322463032773      0.00634424002851
  C          -1.04473121016057     -1.69702353289697     -1.35752804547199
  C           1.19488185375665      0.87584073388122     -0.09633966991698
  C           0.16367242414766      1.67182006869953      0.43891319865307
  C          -1.11870330248126      1.60573365755100     -0.08122946111165
  O          -1.64864242004788     -0.10400786196511      0.33488727886267
  O           2.45430776936372      0.92854681184377      0.37163625908413
  H           1.19975886584985      0.66946585929493     -1.16204215882053
  H           0.29995283344868      2.05084996998229      1.44414203546701
  H          -1.25317971372541      1.46654975577839     -1.14426663586684
  H          -1.90762218264835      2.15116608574858      0.41132437740049
  N           0.89356047441030     -0.60856740086482      2.96711694093266
  Cl         -0.46962850600708     -3.37139515238360     -1.21227242444052
  Cl         -2.77073703295253     -1.69870629553980     -1.73319846261748
  Cl         -0.16948532003513     -0.92693605273005     -2.72218396002640
  H           2.47323557413860      1.21531477834579      1.29687994253123
