19
Coordinates from ORCA-job NEB_reactant E -42.663028832670
  C           2.17822439276463      0.21384067494058     -0.31386841686486
  C           1.59757399203285      0.67917857361840     -1.43323908549323
  C           2.47609302372171      0.93297867944421      0.85181660194294
  H           2.46405686942402     -0.82675911177949     -0.26603305968772
  C           1.37853417050723     -0.21122195398784     -2.63791053087307
  C           3.72921800896509      3.14462380051526     -1.47071290239406
  C           2.76389577586515      3.36864780978772     -0.58892142935157
  C           1.33234348974358      2.96877740922367     -0.79405798716715
  O           1.15881441753899      1.90802799905722     -1.72406373814172
  O           5.02601925433124      3.47358731371095     -1.31834134319139
  H           3.55608881135942      2.65660481183158     -2.41950602299642
  H           2.97327858594109      3.85635404163724      0.35211321329815
  H           0.75635972194967      3.79154590352770     -1.23305145626048
  H           0.87783669705638      2.70172511706544      0.16708237467594
  N           2.75515192861250      1.44076384244611      1.84358946560542
  Cl          1.57425169796878     -1.93200924451570     -2.30347125462074
  Cl         -0.25729335995921      0.04916484868572     -3.28791904746664
  Cl          2.56853097749433      0.25925616314219     -3.88822464454269
  H           5.16462154468253      3.89111332164903     -0.45778073647072
