24
Coordinates from ORCA-job NEB_product E -32.354169358620
  C           2.50233668477269      1.24133835786585     -0.28816767755258
  C           1.28128999151980      1.09766914987099     -1.18351750399651
  C           2.28216136258141      0.47749501378996      1.02263928742430
  H           3.38707648201897      0.84737489942506     -0.79636456221719
  C           1.59144086928940      0.92966037114981     -2.64937392961104
  C           2.75491641256685      2.76301710711445     -0.10566511187865
  C           1.84760774594598      3.36790473521493      0.92704785655758
  C           0.71225366983830      3.97626420968142      0.64247107659715
  O           0.15629515700777      1.12178296575331     -0.75455636413375
  O           4.12238295771556      2.93098902119796      0.21859906323642
  H           2.55655211074978      3.25088604847108     -1.07770656677797
  H           2.19223984103731      3.27589686076531      1.94803941582228
  H           0.35733822805857      4.07081158025015     -0.37030283346895
  H           0.07936346580617      4.38513181398532      1.41091416626623
  C           3.53510345489710      0.39896106327629      1.88349834438167
  H           1.96036765015541     -0.53564304816016      0.76602404490460
  H           1.46507760360811      0.94560307704245      1.57282811990814
  H           4.32814620354477     -0.12171319423692      1.35140975591504
  H           3.32408256060596     -0.14109110150137      2.80380737536756
  H           3.89806022307402      1.39065562369264      2.13420308328674
  H           2.34655453236967      1.64496640229251     -2.96544376356123
  H           0.68965687239298      1.04565101784139     -3.24490852299205
  H           1.99141645919424     -0.07120871812964     -2.80459797143321
  H           4.27987946124916      3.85939674334720      0.42042321795544
