25
Coordinates from ORCA-job NEB_product E -42.956248124530
  C           2.54198221050067     -1.11166099379474     -0.82885258947307
  C           1.51814708747943     -1.70010755859843      0.07210707293255
  C           2.18159474556319      0.34605748317006     -1.15053950671502
  H           3.50872647542881     -1.13407135768485     -0.31571657656528
  N           2.03778034109419     -2.96888415662840      0.81883067800920
  C           2.62983077135042     -2.09232162202583     -2.05498394076397
  C           2.05966642389637     -1.50118959162661     -3.31168051818360
  C           0.89978254318727     -1.86164191709363     -3.82717202792084
  O           0.39131215819026     -1.40332180834009      0.27917610117821
  C           4.07276292093714     -2.55431676261822     -2.27894087580368
  H           2.05944377609511     -3.00058300823018     -1.82376950378016
  H           2.67917895746094     -0.76319435143329     -3.80017058215566
  H           0.26813825554452     -2.59663426427080     -3.35485661936838
  H           0.52835980796134     -1.43114400998660     -4.74079018761861
  C           3.39452976109960      1.16377521476648     -1.57425730734751
  H           1.75214078152771      0.79201339349909     -0.25039730364231
  H           1.41316103340561      0.37265442231810     -1.92365628112971
  H           4.12862886652512      1.19999289189799     -0.77256954446393
  H           3.09157638327025      2.18151100294594     -1.80599492448422
  H           3.87518671462876      0.73993221917396     -2.44993006873879
  O           1.20262168232570     -3.60877908521973      1.39700414490998
  O           3.22251448598266     -3.20634660889028      0.75582484689635
  F           4.89100612749128     -1.49588027884456     -2.57776209702379
  H           4.12486200438760     -3.24351787573832     -3.12808950438607
  H           4.47746568466604     -3.03024137674706     -1.38001288436168
