25
Coordinates from ORCA-job NEB_reactant E -42.954761467010
  C           1.99584115410205     -0.14707137275952      0.02778716586532
  C           1.77573049645030     -1.36203257800478     -0.47630830512134
  C           1.40307897667656      1.11720109366555     -0.48597383709405
  H           2.66852357376875     -0.07198089768599      0.87126076828312
  N           2.41467125468304     -2.51897125804434      0.15674864004836
  C           2.92226910157845     -3.48372987013953     -3.14065140831753
  C           2.79229034167961     -2.17118545025692     -3.03346390412281
  C           1.46326758211656     -1.50517116539994     -2.82703364990592
  O           0.95463391268858     -1.69912603993429     -1.49622584330301
  C           4.22547758612166     -4.19940026686859     -3.25164364096239
  H           2.05980514246302     -4.13364643727617     -3.11969967153393
  H           3.66646878082451     -1.53500941819889     -3.02458707112153
  H           0.69391305375613     -1.95172465770714     -3.45985686861539
  H           1.53455887240344     -0.43229521172051     -3.03941093992660
  C           2.49011849965192      2.03948136048055     -1.04386115973742
  H           0.90670944573717      1.62372747867108      0.34573892761111
  H           0.65478652846471      0.90251842551138     -1.24971561962936
  H           3.22566363472315      2.26746467703717     -0.27665543642495
  H           2.04803991850160      2.97033171226855     -1.38883654812605
  H           3.00191447105300      1.56841561211720     -1.87987983960613
  O           2.19662084104134     -3.60667267497207     -0.32556948574665
  O           3.11769918378109     -2.31404727283295      1.12427257714825
  F           5.28690975130694     -3.33319717826133     -3.33613065940247
  H           4.25602566192763     -4.82796045355793     -4.14990874602350
  H           4.38948223449876     -4.82391815613058     -2.36469544423512
