17
Coordinates from ORCA-job NEB E -37.991407201310
  C          -0.01450687430796     -1.47577343452070      0.15448838107193
  C          -0.90606081895034     -1.16262036856905      1.18515290718955
  Cl          1.64015071812005     -1.75861912938303      0.61413582568734
  H          -0.33891091877289     -2.13941115818861     -0.63992892652762
  Br         -2.79403288209111     -1.38310478244882      0.68133664243491
  C           0.00605124745478      0.33282273809189     -0.67561648179796
  C           0.35828709813077      1.14189075684796      0.40427912987560
  C          -0.54354900035563      1.24754559482835      1.48749938802153
  O          -0.66331781977520     -0.32204305260059      2.08549238971268
  C           0.93754662989633      0.24067805088381     -1.86262762241116
  H          -1.03183538725380      0.31584203739189     -0.99732319266152
  H           1.40717512918812      1.33281538541310      0.57832435838785
  H          -1.59250506428898      1.40345196550452      1.25093412603824
  H          -0.21306784421583      1.78505656333164      2.36552917386994
  F           2.23906490858711      0.26429597080391     -1.51116316134925
  F           0.74061923925175     -0.90321547539301     -2.55979652528115
  H           0.76889163938284      1.08038833800674     -2.56071641226091
