17
Coordinates from ORCA-job NEB_product E -38.035982569950
  C           2.04521093581733      1.21369013489049     -2.07019239460491
  C           0.77425189209470      0.77015979548716     -2.73537061114602
  Cl          1.72454657749141      0.93494043953401     -0.32192605662204
  H           2.88808219375076      0.57431609038520     -2.34570205428638
  Br          0.63146065498038     -1.16299351800014     -2.81840539424147
  C           2.35836675506535      2.69435365391242     -2.30484766888450
  C           3.57277942885933      3.10044498469418     -1.51345104529224
  C           3.56694434615023      4.06181089977188     -0.61198631153754
  O          -0.09982718025473      1.44933927652562     -3.15107204056088
  C           2.61072455434201      2.92994791701888     -3.80285600213423
  H           1.49654343199875      3.30461039285786     -2.01762738904978
  H           4.47478427033000      2.55296353021717     -1.74850761636083
  H           2.67481942695025      4.61818724948713     -0.37667524499599
  H           4.45717194950197      4.33128553661028     -0.07195163743579
  F           3.01957292076372      4.19725957338838     -4.01585507820352
  F           3.60403016470597      2.12366976690351     -4.25163628572051
  H           1.72403767745256      2.75251427631596     -4.42993716892334
