20
Coordinates from ORCA-job NEB E -41.078429443490
  C          -0.35513488940126      1.14327886726647     -0.17660466734590
  C          -1.63646102371746      0.78268314949590      0.23536485817649
  C          -0.05030083425480      1.01209000264745     -1.65023280891370
  H           0.06029894859230      2.07164743420911      0.20225947933760
  I          -2.32572853203453      1.71723487381437      2.06159970834976
  C           0.69262215464323     -0.30011987996302      0.71815676627517
  C           0.00551170845114     -1.43240433927704      0.28923268149570
  C          -1.36422730005081     -1.59231142601374      0.64045095364754
  O          -2.15167994483932     -0.33704596539895     -0.05889934465857
  C           2.13538040032143     -0.11108855036093      0.35051695039490
  H           0.45557099505326      0.07171272819862      1.71225053456699
  H           0.37342902825305     -1.96731707692580     -0.57375830783216
  H          -1.62766197581823     -1.41459219294967      1.68157031441101
  H          -1.88008889805958     -2.44418047424525      0.21589904058960
  F           1.20741262156310      1.38116857750862     -1.93612703879913
  F          -0.22062997095493     -0.20180489381116     -2.17521699166825
  F          -0.84095220721920      1.84147852889170     -2.35881451043608
  H           2.43168458544501      0.93275747883795      0.41096892708160
  H           2.34658373286965     -0.48235896682857     -0.64844167160292
  H           2.74437140115795     -0.67082787509609      1.05982512693035
