20
Coordinates from ORCA-job NEB_product E -41.120752256020
  C           2.75487899907165     -0.72030199441231      1.05441576816465
  C           1.26789190864941     -0.82958191231779      1.24124607153894
  C           3.05036971780347     -0.42105061662182     -0.41875087329713
  H           3.14899412370906      0.13346781559600      1.61630999490365
  I           0.69057444281828     -0.50092387864722      3.30008201904561
  C           3.40301111095008     -2.02732292237062      1.60331089162040
  C           2.64895015704234     -3.24474038655701      1.13939231260963
  C           1.97446441298880     -4.03419000388742      1.95343535516557
  O           0.44867226658108     -1.09336004884357      0.43848288287250
  C           4.88083215786165     -2.13413619487985      1.23157991430158
  H           3.32495732320879     -1.96693637574888      2.69489827370174
  H           2.69728879664073     -3.45714505440856      0.08124415117923
  H           1.91466853213335     -3.84721023418919      3.01395583357682
  H           1.45406473030721     -4.90426000747058      1.59358763465392
  F           4.31464504726645     -0.00464035573072     -0.58712036836174
  F           2.87154861249068     -1.45029067788629     -1.24464915117587
  F           2.27678973557469      0.58011969513163     -0.86432346185001
  H           5.42284964159744     -1.23585423239806      1.51743043188300
  H           5.01120650307059     -2.29744812697276      0.16491415943394
  H           5.31284178023425     -2.98209448738498      1.75735816003357
