21
Coordinates from ORCA-job NEB E -29.155201200720
  C          -0.16333428536332     -0.80346334489511      0.78456002072783
  C          -1.27614640910110     -0.62480304955023     -0.02675281381923
  H          -0.28273762895439     -0.52972026288458      1.81943654516560
  H           0.49581908588788     -1.64193128714615      0.62209378316128
  O          -1.42183065223016     -1.20127239457857     -1.26260133370925
  C           0.85106741026297      0.82169629432889      0.24420988804061
  C          -0.08110545583033      1.82708940778597      0.47551527644467
  C          -1.29709385306325      1.79390148109669     -0.26247709566358
  O          -2.04599540050971      0.39406856954235      0.16416095250708
  C           2.11049201685294      0.76060106882287      1.06462670289737
  H           0.99627910513667      0.52436788681699     -0.79058381246596
  H          -0.10292932703819      2.28431920093562      1.45503953921271
  H          -1.21092557064566      1.64591152445124     -1.33590823549565
  H          -2.04887111291827      2.52791667378610     -0.00222306739661
  C          -0.60701659303096     -2.29421722609740     -1.60515352477579
  H          -0.98754624185046     -2.66173924771442     -2.55697461260144
  H          -0.67195576238524     -3.09046854967216     -0.85692557574617
  H           0.43919952256537     -1.99669358935085     -1.72702731860225
  H           1.90832988554405      1.00708748644251      2.10385093945552
  H           2.82816356705047      1.48193470740953      0.67455433810804
  H           2.56813769962070     -0.22458534952928      1.01857940455521
