22
Coordinates from ORCA-job NEB_reactant E -50.488802612960
  C           2.03128271656064     -0.09539698667873     -0.09249794503535
  C           1.53484329301950     -0.94618173687015      0.80030599245514
  C           1.59738968289089      0.07290013162797     -1.51411034966886
  H           2.81692793327856      0.58561302940639      0.19797855701143
  C           1.97261032177715     -1.00649953078993      2.23414344681740
  C           1.89645708396271     -4.78155312365458     -0.81357900087880
  C           1.78851665187794     -3.46666094134717     -0.68958635259177
  C           0.50423665956751     -2.73125798107068     -0.48243502911179
  O           0.53869595075367     -1.87247905287758      0.64339365801760
  N           3.18309768281381     -5.39570958677796     -1.02449601476634
  H           1.08117377300027     -5.48652971370681     -0.76664266135380
  H           2.69472995317356     -2.87204910272962     -0.73305101831317
  H          -0.31163174478439     -3.42273760023811     -0.25858499054319
  H           0.25553160111162     -2.17594026363579     -1.39675207010168
  F           2.16093642120378      1.20704026847339     -2.02630351150844
  H           0.51050474419249      0.19702179237557     -1.59829446700139
  H           1.93474389026523     -0.75368413829826     -2.15533985971355
  Br          3.25103176632062      0.32611474624289      2.78028717897683
  Br          0.38746949352767     -0.84300170536931      3.36656207916890
  Br          2.75653184259849     -2.78913088448622      2.55288706538704
  O           4.14244871531531     -4.67106894870499     -1.15767662069126
  O           3.20217156757298     -6.60360867089030     -1.05740808655493
