18
Coordinates from ORCA-job NEB E -25.619738053090
  C           0.53083372200282      0.47403973490493     -1.14868992587181
  C          -0.75953615597468     -0.02499036202818     -1.30239208642901
  H           1.35019357569835     -0.18418039815517     -1.37965815714248
  H           0.70985199969287      1.51213022449370     -1.38635437809919
  N          -1.83016667123617      0.82664154814909     -1.49161879099014
  C           0.71226849831555      0.34284731215750      0.83829232838588
  C           0.41276452780746     -1.01052636888984      1.04735132609192
  C          -0.86146782817451     -1.48477769206076      0.66485046237667
  O          -1.02657514172694     -1.25533489647288     -0.99847586905695
  N           2.00201213310795      0.84631328206892      1.04858879317407
  H          -0.06444314011402      1.06910004964702      1.06101718960563
  H           1.24011720584828     -1.70724639742311      1.01078536342588
  H          -1.71501640417608     -0.89850044154080      0.99573918525566
  H          -1.03239247522378     -2.54988749429638      0.73833428168700
  H          -2.73715909133022      0.47674800119100     -1.22937947184831
  H          -1.68033177751732      1.81657622006937     -1.40230186551608
  H           2.68535292215145      0.12963841250556      1.24467880718885
  H           2.06369410084898      1.62140926568002      1.68923280776240
