18
Coordinates from ORCA-job NEB_product E -25.679054895710
  C           2.14264538490365      0.83234089351977      1.53924120001703
  C           1.05364617245637      1.88604816558663      1.36324803587121
  H           1.73006432164073     -0.12829003274348      1.22943154986474
  H           2.96951578809022      1.08274156828300      0.86998320537711
  N           1.36439794811409      3.07825567591479      1.90828678526398
  C           2.66661639081740      0.72609376746303      2.97964396162687
  C           3.47764969731492     -0.53273745123255      3.13195088548722
  C           3.21677803214718     -1.48866702701947      4.00315272695235
  O           0.02728090821137      1.67261646630034      0.75568908248604
  N           3.44898652634544      1.92303428400744      3.31057340885482
  H           1.81596123296255      0.69718643767339      3.67008566405409
  H           4.33741671987831     -0.60307289198591      2.47639939448068
  H           2.36545043626309     -1.43500685727943      4.66200310026170
  H           3.83242611909803     -2.36788441828561      4.08998008743728
  H           0.67301504569264      3.80956221441016      1.89839744690544
  H           2.16697972010087      3.13339180695418      2.52571325595403
  H           4.29705153641688      1.94190025303682      2.75050600096048
  H           3.72591801954626      1.89838714539688      4.28641420814492
