20
Coordinates from ORCA-job NEB E -37.884395127950
  C           0.76358172497792     -0.92258849844119     -0.14465571735407
  C          -0.28070183781936     -1.21868291691152     -1.00574506855350
  C           0.75328409737931     -1.30659985368776      1.30344644544629
  H           1.75931111637747     -0.98067530497120     -0.56519160717488
  O           0.06085698533497     -1.30923725048490     -2.32769451183207
  C           0.37567960942907      1.25722973940085     -0.07621053921223
  C          -0.97374973981342      1.19789368132707      0.26828607629177
  C          -1.91183490380819      0.66576868800106     -0.60738615907136
  O          -1.50545977601804     -1.12390232061152     -0.70518218156853
  N           1.29575968055817      1.79302456380993      0.77441288135772
  H           0.64996834712551      1.32041802136668     -1.12226060050658
  H          -1.22978974251668      1.27226583359269      1.31441652129008
  H          -1.78802424140723      0.83298822697670     -1.66912674136618
  H          -2.93385474489688      0.57038058408036     -0.27955090155378
  F           1.83627800893320     -0.75872919101740      1.93380518680470
  F          -0.31767323241451     -0.88570145879950      2.00952151528927
  H           0.82560255133443     -2.39917041311906      1.45231147913559
  H          -0.75151061725083     -1.37847654440027     -2.84827961850768
  H           2.26817387254074      1.68770342183390      0.53539362401225
  H           1.10410284195437      1.68609099205508      1.75968991707319
