20
Coordinates from ORCA-job NEB_product E -37.915095238850
  C           2.37523209823729      1.55917116695982     -0.00886850117127
  C           1.66375394619700      0.82520044716642     -1.14668420674501
  C           2.07407322467572      0.85438969887414      1.31487292510769
  H           3.45695078649240      1.45719189426395     -0.17047528586126
  O           1.97597397152530      1.26972877657447     -2.37016901483143
  C           2.07965469487060      3.09015326650783     -0.01111695758508
  C           0.92326906602094      3.47107037587872      0.87584329307469
  C          -0.27065900836624      3.79578466777477      0.41897524728806
  O           0.91422298434260     -0.08926373876968     -0.98606964612171
  N           3.32599123108635      3.76946221755693      0.32753933584620
  H           1.82972601901815      3.39216861109499     -1.03799509482589
  H           1.13827100981972      3.49666545426825      1.93563360250745
  H          -0.50349154994830      3.77284806228806     -0.63338793404439
  H          -1.07032655211178      4.08097529831532      1.07934451042873
  F           2.79433914362425      1.41897206841409      2.32122181117891
  F           0.78380640375515      0.94053458668240      1.68712011977231
  H           2.33636023119348     -0.21375606184140      1.27213830107371
  H           2.62782466281212      1.98532876355353     -2.36087197208121
  H           3.59117280020039      3.55075269185291      1.28343183710025
  H           3.20005483655484      4.77432175258446      0.27071762988924
