15
Coordinates from ORCA-job NEB E -31.470914199660
  C          -0.02286823054369      1.79336209045077     -0.48717059645296
  C           0.13781122167179      1.13969111779342      0.79995958072279
  Cl          1.25553899981399      1.60392246351084     -1.62998840487478
  H          -0.52586145091982      2.74574226678454     -0.55203234814648
  C           1.01684560045830      1.69834889847405      1.71331848917110
  C           0.78042106772233     -1.81104868092329     -0.55376395589828
  C          -0.52140252660232     -1.61957695673882     -0.64985686304407
  C          -1.29300574753141     -0.62215553075487      0.16095372703205
  O          -0.50633597343599      0.01399587826585      1.14588227353991
  F           1.40608147048602     -2.71256296453982     -1.31899836381752
  H           1.46110146341208     -1.30547579920054      0.11562159385016
  H          -1.10503510258305     -2.19191992553670     -1.35471175849208
  H          -2.09962015655192     -1.12827627405154      0.70120520490357
  H          -1.72221607610500      0.13465266030671     -0.51299310343414
  N           1.73854544070868      2.26130075615942      2.42257452494073
