15
Coordinates from ORCA-job NEB_reactant E -31.562903294570
  C           2.07880983055089      0.23280899420142      0.19327844449805
  C           1.35057238932167     -0.77969269154393      0.69864045876658
  Cl          2.80174408642046      0.15283050554634     -1.34936005768779
  H           2.23775979898722      1.14367451394576      0.74550871751747
  C           0.79136880849682     -0.61299967383254      1.99206443369526
  C           0.61860660828286     -5.30917873821946      0.00157395642843
  C           0.26064485171125     -4.07965791635560     -0.31360609680588
  C           0.36333347541562     -2.93154832708381      0.63587810540924
  O           1.14847700790238     -1.92870495620424      0.00759695398600
  F           0.50109718491042     -6.31975850928478     -0.86614930929504
  H           1.00710429833541     -5.63669078450907      0.95571914815199
  H          -0.10815363919254     -3.85206843579974     -1.30207282181976
  H           0.82534711229370     -3.24580766548750      1.58090040217369
  H          -0.64010595727999     -2.53546694521837      0.85366347110879
  N           0.33079414384382     -0.48743937015447      3.03496419387298
