23
Coordinates from ORCA-job NEB E -39.638470030970
  C          -0.09462106679092      1.53104391760988     -0.61834996588437
  C           0.67222644348588      0.45580769207249     -0.45721335303392
  C          -1.49748741667446      1.48761345957027     -1.14136012161425
  H           0.32213609565735      2.50472208398733     -0.40861790584791
  O           1.95678354837581      0.48884039281037      0.00932011453623
  C           0.19296508973901     -1.42269566431506      1.99712083184859
  C           0.98578195373023     -2.08052100816383      1.17159724341679
  C           0.99838768739936     -1.87991229096846     -0.31424833889594
  O           0.21615040491703     -0.79391921371698     -0.75165249744156
  N           0.22646843627805     -1.63649818577642      3.42959861288649
  H          -0.52869563845714     -0.68682957970455      1.67268818350310
  H           1.68949311841967     -2.81384944010770      1.53925111971471
  H           0.56418847028633     -2.75806881140269     -0.80382776408681
  H           2.03810182410079     -1.77185782935025     -0.64794855312594
  C          -1.59301774144336      2.11348302596108     -2.53289475951306
  H          -2.15417623687679      2.03598034818968     -0.46003380067033
  H          -1.82910725518346      0.45036055475214     -1.18396152118253
  H          -1.26068579460728      3.14908717924834     -2.50874346927266
  H          -2.61942910357608      2.08855028459839     -2.89062558382798
  H          -0.96724293471848      1.56674274015011     -3.23389520937995
  H           2.20940349571740      1.39997833610599      0.18891437524885
  O           0.98938387057214     -0.95195377723046      4.06796858805823
  O          -0.51700725035107     -2.47610421431967      3.87691377456425
