20
Coordinates from ORCA-job NEB_product E -47.587557683950
  C           1.50420380046415     -1.98563548855803      1.35820290773836
  C           0.97746532391990     -0.57226364795729      1.25790243544711
  C           1.50876371547695     -2.58877502211948     -0.05573141965733
  H           2.54595616391477     -1.97303652505450      1.70121593726705
  I           1.63376520944125      0.67399885492497      2.89387644440608
  C           0.61996667977829     -2.68302489912277      2.42208069257132
  C          -0.84591410261880     -2.48506710804540      2.13301789520874
  C          -1.68042436291562     -1.94221132515840      2.99958555525425
  O           0.24914611368615     -0.14097055791341      0.43821179301419
  C           0.91158914549633     -4.16503560661815      2.66984491491787
  H           0.85333319745762     -2.18089424661876      3.37296761063371
  H          -1.19475666762491     -2.82442792185249      1.16818219328928
  H          -1.35952928547940     -1.59961649340599      3.97009469362010
  H          -2.72371822530044     -1.82039399110167      2.76941276950421
  F           2.11012922559551     -1.72221138538926     -0.89836278585156
  F           2.26332176250248     -3.70638681965847     -0.08321383946903
  H           0.51479591969455     -2.82332143846855     -0.46234769287532
  Br          0.01655081164381     -4.67016663145665      4.34348289209729
  Br          0.21409361945364     -5.35625781200996      1.29535477288661
  Br          2.82036195541379     -4.50520193441573      2.91702222999706
