20
Coordinates from ORCA-job NEB_reactant E -47.571909011890
  C           1.60737254475874     -0.00058770298866     -0.09666117721392
  C           1.22773484911980     -0.31657680773076      1.14188647028699
  C           1.77159165590996     -1.06243223123226     -1.14343824194621
  H           1.83141928048434      1.01206308752528     -0.37543165244716
  I           0.97228827551667      1.25775574365901      2.55874500004553
  C          -0.10353796382104     -4.12979611879512      3.64558743933335
  C          -0.00742854345418     -3.38486238115777      2.55630448536764
  C           0.18245834501239     -1.90377964179126      2.58957281974525
  O           1.06730894569839     -1.56632535730388      1.53871396282311
  C          -0.33077715574276     -5.59024749276618      3.68467060425767
  H          -0.03536574377710     -3.68569389518951      4.63224699991984
  H          -0.06079700288648     -3.80307046542169      1.56037569429084
  H           0.59167445338438     -1.57535507806139      3.55415081446971
  H          -0.79159823446038     -1.41531635783399      2.43552845476895
  F           2.83681111992099     -1.86478667122029     -0.88388947171372
  F           0.69347463645591     -1.88803959100655     -1.18708691144067
  H           1.91074285618232     -0.64031202785136     -2.14955191929559
  Br         -2.01710752532513     -5.94865013076158      4.65071858804236
  Br         -0.44439425278798     -6.45041624852443      1.95179712924140
  Br          1.13072945981115     -6.44547063154759      4.69576091146464
