29
Coordinates from ORCA-job P E -34.652349056930
  C          -1.18927991643571      0.30981035976202     -2.37668902153703
  C          -0.44514920767601     -1.59869594243018     -0.17388787930620
  C          -1.54893575543637     -1.83593032668604     -1.15332932256124
  C          -1.87967639538875     -0.99984127530451     -2.12213537867838
  C          -0.41806898011890      0.72787154715880     -1.11900266224181
  C           0.44004696218886     -0.42722092089724     -0.59359237742011
  H          -2.08301770442062     -2.76910906328201     -1.03328207263020
  H          -2.66706425126528     -1.27385297142004     -2.80823639241258
  C          -2.16455109019634      1.40029290183522     -2.89671571174953
  H          -0.86436120575440     -1.40608312282445      0.81811244764140
  H          -0.45226118470459      0.13538232387257     -3.17386246154747
  H           0.17752583244774     -2.49327402187094     -0.10401130632155
  H          -1.11211273803264      1.01701511682313     -0.32964166843088
  H           1.00912913232640     -0.07267715978684      0.28571148928644
  H           0.23120115161306      1.57859865187142     -1.33667650789856
  O           1.34960714885747     -0.90219366793921     -1.56560560940425
  C          -3.36957087537642      1.55069723400965     -1.96496048961689
  C          -1.44964704878927      2.75201927435368     -3.01063820193216
  C          -2.65662350687732      1.01969316161045     -4.29854114817125
  H          -3.06187840376236      1.89198121306095     -0.97968194592611
  H          -3.89129456696272      0.60418839412997     -1.85010125161518
  H          -4.06590598785339      2.28132855244687     -2.37132080939008
  H          -1.20899513754482      3.15913409200554     -2.03235799057265
  H          -2.09334610797086      3.46792511377604     -3.51773308306893
  H          -0.53164409386854      2.65649428228518     -3.58728278909247
  H          -3.22859443563694      0.09652811349912     -4.28774556233269
  H          -1.81649551834104      0.89360981547017     -4.97840967738885
  H          -3.29983463644411      1.80334053844356     -4.69370488356531
  H           1.82734852142386     -0.15094221397289     -1.93333773211548
