29
Coordinates from ORCA-job TS E -34.548383449410
  C          -0.07081812803716     -0.27101109049202     -0.34125761800184
  C           1.32046831521790     -2.48594577495232      0.82904429863344
  C          -0.03381041991779     -2.45745248213125      0.71234990551189
  C          -0.72019264068246     -1.38699136040198      0.11226925659589
  C           0.82321713364687      0.32706322817548      1.62507981966010
  C           1.70326890429742     -0.61684616820855      2.06671874846457
  H          -0.62341913384497     -3.18167383851308      1.25925768169022
  H          -1.79633755520847     -1.37281119866650      0.21347708988951
  C          -0.80618442490445      0.89024531878920     -0.98129213725473
  H           1.80096211036502     -3.26798466739393      1.39408959443837
  H           0.94667000570626     -0.37839199810715     -0.68693174357666
  H           1.95563217226414     -1.99252135603174      0.11565122935315
  H          -0.14322754290422      0.39323663882072      2.08376981542518
  H           1.48593281462136     -1.27469157508868      2.89064758285878
  H           1.19379372363001      1.20761032571448      1.13116573932160
  O           3.04916787927943     -0.53910666832470      1.83138593349242
  C          -1.89640266118475      1.46700338198299     -0.07457930950940
  C           0.16951756797836      2.00849869258510     -1.36257823569445
  C          -1.45374516767256      0.36112571262878     -2.27289465636256
  H          -1.46279262568630      1.89677600276160      0.82461579064781
  H          -2.60800880672161      0.70056830050640      0.21899762952112
  H          -2.43924287462693      2.25048639478416     -0.59949952513295
  H           0.59912122148692      2.47670974465752     -0.48005519847984
  H          -0.34862631770858      2.78081552577916     -1.92723917795072
  H           0.97783094708735      1.62220018163534     -1.98061511312610
  H          -2.18119333275488     -0.41391111525895     -2.04766290562852
  H          -0.69791509198232     -0.06227468013090     -2.93086466950090
  H          -1.95853144777875      1.16778008346054     -2.80075186199621
  H           3.21486537603516      0.15149444142028      1.17770203671086
