26
Coordinates from ORCA-job NEB E -48.314198984010
  C           0.51669191305958     -0.66483865804398      0.52778599788076
  C          -0.76817633879164     -1.04888079538577      0.08704995797874
  C           0.77494411488922     -0.66008309431768      2.01571512165287
  H           1.35123445300454     -1.15779497101642      0.03408598878135
  C          -0.93514890359188     -1.90014493445100     -1.14747911217359
  C           0.56442789277414      1.17563156823430     -0.00171997339359
  C          -0.58809374675595      1.70444150919510      0.59229426667009
  C          -1.85040084415258      1.12687643616167      0.24879485313777
  O          -1.80791620572527     -0.43150663355856      0.57623406074986
  C           1.90587843054442      1.77389021837168      0.36014615289336
  H           0.52495225500518      0.96860152873990     -1.06673416631055
  H          -0.49253031725497      2.18782457962001      1.55206101206912
  H          -2.08532183579979      1.10042919698667     -0.81366503004172
  H          -2.69262429460888      1.47088442748947      0.83836748557543
  F           2.05155431420094     -0.36300282351590      2.30528106580553
  F           0.00488092067583      0.12976570557582      2.75410749456632
  F           0.59348051531848     -1.91382030272769      2.49652697588947
  C          -0.44875641257885     -1.23394036829874     -2.43817685290921
  H          -1.99566361592671     -2.13745185218543     -1.23987144088267
  H          -0.38711133847101     -2.83348961637420     -1.00270230386869
  H          -0.97827464732249     -0.30182561484763     -2.61995690690642
  H          -0.63424030549290     -1.89724939794379     -3.27905058216932
  H           0.61877131645436     -1.03109416689871     -2.39528670068638
  F           1.92531126176253      2.26131038516656      1.63667308816067
  H           2.10921884474708      2.62625218186281     -0.30060627538418
  H           2.72291257403662      1.04921549216150      0.28012582291497
