26
Coordinates from ORCA-job NEB_reactant E -48.354939169680
  C           1.34350605328859      0.38756594987445     -0.15103467293404
  C           1.38165310142101      1.21935707327866     -1.20447715704879
  C           1.84658348823260      0.53349895259586      1.23729049402773
  H           0.86696302936896     -0.56808971026610     -0.29836549440839
  C           0.80008469023613      0.75478817821690     -2.51845698400220
  C           2.89760354139311      5.58991586665130     -0.23522644405292
  C           3.03355180108455      4.44011552534475     -0.87232868139695
  C           2.59869602693520      3.12029524716027     -0.31840778986557
  O           1.88855685962771      2.44301816018023     -1.34996225276823
  C           3.35409070896841      6.91071256228373     -0.76465726953520
  H           2.44671742466656      5.64288873910474      0.74602500452383
  H           3.48094348309156      4.40315882359924     -1.85491509020588
  H           1.96284294012474      3.26662128607221      0.55941373741301
  H           3.48490805036373      2.53775848474928     -0.03590775726905
  F           3.18553445856176      0.70823148662454      1.34391785506323
  F           1.30133215515002      1.56049456858427      1.93242398068682
  F           1.57229445342488     -0.56782375890231      1.95300143469936
  C           1.86684422940654      0.03216729961697     -3.34188555119461
  H           0.45532752252517      1.63272022365935     -3.06487759677086
  H          -0.04468314751731      0.09131396145387     -2.34018572854760
  H           2.70838303995958      0.69310809110172     -3.53169522829877
  H           1.45161682747570     -0.28254918960616     -4.29549864920601
  H           2.22709719729879     -0.84582010647703     -2.81159926628115
  F           3.93286107410125      6.80169035247908     -2.00231152217506
  H           4.10507788041456      7.35875628363386     -0.10150642951929
  H           2.50831311039621      7.60210564898631     -0.86957294093338
