26
Coordinates from ORCA-job NEB_product E -48.367639876510
  C           2.03833262487856      2.01213328501966     -0.76802677634083
  C           0.77354066943942      1.97603456229204     -1.65014501896001
  C           1.81093839429641      1.05476020637703      0.39726973688076
  H           2.90357199826190      1.63788601926741     -1.32286608780049
  C           0.83852615262521      1.02746619303235     -2.81518309017217
  C           2.30637131113955      3.43987311531638     -0.24829763368125
  C           3.44622738928780      3.46539483987525      0.73032278305849
  C           3.32407668298158      3.85196834079437      1.98495807443565
  O          -0.16564920345642      2.68568622613218     -1.41351154423202
  C           2.61390544468174      4.35901521838717     -1.43485133327338
  H           1.39266784206500      3.81088973562150      0.22663594614335
  H           4.40173479191211      3.15439471301394      0.33060052640951
  H           2.37531397610149      4.15794581136587      2.39428936746992
  H           4.16425547734294      3.86664343044503      2.65659707822468
  F           2.94506110645955      0.75926212915606      1.04976644778440
  F           0.95448076646275      1.52482090204819      1.30546362764796
  F           1.31830075108552     -0.12766519967481     -0.01768393037432
  C           1.58199239588831      1.70048061207730     -3.97535583242666
  H          -0.17894454688966      0.79033539260311     -3.12821579171757
  H           1.35130046833405      0.10937860252083     -2.52781478853440
  H           1.05032935724254      2.59366304598121     -4.29443595747605
  H           1.63967621504928      1.01553296976844     -4.81672852927947
  H           2.59278033115177      1.98161976739756     -3.69087013728394
  F           3.66414397669607      3.86424370296750     -2.17127754302307
  H           2.91006450367069      5.35201659087485     -1.08586604723506
  H           1.76060112329185      4.43631978733957     -2.11447354624402
