20
Coordinates from ORCA-job NEB E -49.332487610700
  C           0.71976719562049      0.24292678489197     -0.99422695152242
  C          -0.53671873907207     -0.22129565090063     -1.37546628756271
  H           1.53700496027698     -0.45944813846217     -1.05098154808532
  H           0.98502718052539      1.25550389389020     -1.26002519029028
  C          -1.62053436582424      0.74911022934024     -1.78699421417578
  C           0.54550809033751      0.19949847716417      0.92983526289467
  C           0.14611789256290     -1.11499491184782      1.15725840144508
  C          -1.08391051263791     -1.55655025905591      0.55868456493000
  O          -0.92369109530070     -1.41296372992319     -0.99281001560620
  C           1.86070375749162      0.66450359798945      1.49661135065360
  H          -0.21006771540561      0.97643260970760      0.99657198813234
  H           0.89889008975964     -1.85563905567710      1.38292909346607
  H          -1.95215278271849     -0.93468394980176      0.77014548532579
  H          -1.30289297801236     -2.61189986985412      0.68004739354781
  Cl         -2.29070175667377      1.62371819679284     -0.34755765802289
  Cl         -0.99841899246522      1.97360187745347     -2.90240785848165
  Cl         -2.95933829865227     -0.11690756355902     -2.55511660104308
  Cl          1.71598575154862      0.73875371692598      3.27920602449830
  Cl          3.19478010277681     -0.43264469555824      1.09533620919630
  Cl          2.27464221586267      2.29297844048404      0.91896055070037
