20
Coordinates from ORCA-job NEB_product E -49.372975825010
  C           2.56067812813926      1.35720475398930      2.01695667709981
  C           1.30460413557577      2.18798000223713      1.96560999654288
  H           2.38745252556631      0.50135058454440      1.35857984201283
  H           3.42341277968518      1.90719950557661      1.64517966647049
  C           1.36714794262385      3.38864593243654      0.99441093521052
  C           2.81858587331072      0.81802469414126      3.43317963455471
  C           3.71648497329109     -0.38781919786615      3.38897407346405
  C           3.38436019381468     -1.56064630950641      3.89192440626086
  O           0.28646915820964      1.91917700619749      2.53010015312720
  C           3.44008624585265      1.90203040095609      4.31841025306348
  H           1.85771237592187      0.54452702831815      3.88295953087452
  H           4.67152670959761     -0.23466476865698      2.90802318830697
  H           2.43672439609709     -1.72445904153320      4.37756527440209
  H           4.04804962319693     -2.40568188170357      3.83858846786351
  Cl          2.78805971013163      4.40763852539361      1.27226873174878
  Cl          1.47564751934223      2.67110707282940     -0.63676884201516
  Cl         -0.09606909247857      4.36825017129880      1.11414297958206
  Cl          3.67329064921067      1.27024910200460      5.96255434618007
  Cl          5.01921747766457      2.42935824819121      3.69525174684708
  Cl          2.37975867524682      3.33022817115171      4.40988893840326
