23
Coordinates from ORCA-job NEB_reactant E -57.864767644730
  C           1.99585729041616     -0.44108891136272      0.02913590111937
  C           1.48504104025746     -1.50189789516942      0.66257973146862
  C           1.86334145881630      0.01268455325296     -1.38151207785419
  H           2.58380984210885      0.24479177125299      0.61945070778406
  C           1.74344266791077     -1.67801300212147      2.14626936501545
  C           2.64704733040487     -3.84970757162350     -1.33312618754174
  C           1.49987276241951     -3.44920604968848     -1.85472619576659
  C           0.39872041788845     -2.78867376676606     -1.08791998182216
  O           0.71207388211654     -2.52775494838565      0.26866566414404
  C           3.71566120775951     -4.51958119743811     -2.13560267721415
  H           2.90326313963548     -3.72939205383107     -0.29168066774638
  H           1.29121579695835     -3.59262593021991     -2.90525577526187
  H          -0.45152412689553     -3.47934706746507     -1.03832889455496
  H           0.05814667861572     -1.89169957703628     -1.61166433985687
  F           2.32885583800350     -0.85628882674083     -2.30399097107695
  F           0.58468222436707      0.26876152538372     -1.74995021155455
  F           2.53376503806618      1.15149645730514     -1.57477064436919
  F           2.44522719368994     -0.64175978542403      2.67984845801832
  H           2.32087786733023     -2.59239161944174      2.32320851175247
  H           0.78833626848386     -1.74344881587640      2.67869477305471
  F           3.40406329443140     -4.66705618199569     -3.42744731677014
  F           4.87522886895060     -3.84402322250748     -2.08737692555651
  F           3.98479401826477     -5.75277788410087     -1.66370024541081
