23
Coordinates from ORCA-job NEB_product E -57.862190307270
  C           2.56360285862738     -1.79973138795410     -0.26575600360801
  C           1.40459747213036     -1.40554975349697      0.68068029454517
  C           2.86463588275942     -0.57924286707854     -1.14329322396588
  H           3.48194917054120     -1.97109114501937      0.30729637815553
  C           1.87180797043009     -1.11986789193907      2.09451786490347
  C           2.18202939767837     -3.09759333706814     -1.01432738362451
  C           0.90212108482323     -3.02887969568986     -1.80769891441412
  C          -0.11040073616463     -3.84657978473957     -1.59402923346021
  O           0.27360236802660     -1.33048880636199      0.31249471633775
  C           3.30834519160215     -3.58235828377658     -1.93651468586289
  H           2.08216133041980     -3.88029077449656     -0.25083499307003
  H           0.86655672546655     -2.29099731765110     -2.59362118237316
  H          -0.09369412836607     -4.59399313218995     -0.81797370629616
  H          -1.00471905749225     -3.79023307650260     -2.18734116615976
  F           4.00411050352440     -0.71095981181649     -1.82571249851926
  F           1.91205383425564     -0.26574487493666     -2.01275249580066
  F           3.03563184857492      0.49835347260950     -0.35040209388364
  F           0.82013066482795     -0.84419191408715      2.91126887765767
  H           2.53609429112632     -0.24595707539780      2.09665090433307
  H           2.39553772904811     -1.98881090909935      2.51198151590430
  F           3.38861369334776     -2.91511495659803     -3.08586521355476
  F           4.51277334235809     -3.50638543173046     -1.34500615028328
  F           3.12485856245460     -4.87179124497915     -2.25086160696062
