20
Coordinates from ORCA-job NEB E -46.025655966750
  C           0.71193638000160     -1.05670595622442     -0.10912503422106
  C          -0.43219676207749     -1.27715832137840      0.68393091137210
  Cl          2.25858393167314     -0.99982609443488      0.70064329651265
  H           0.78403940787582     -1.57575321323842     -1.05942556505651
  C          -1.69061953793732     -1.81841579592465      0.03683984908409
  C           0.37071388006528      0.77036306954361     -0.54780188390702
  C           0.27363085444989      1.39193058563242      0.70586493852300
  C          -0.78148336269901      0.98280642751331      1.56112337799185
  O          -0.56697064777566     -0.62807616951086      1.79502642845741
  C           1.48327799662825      1.22093161344213     -1.46662603872433
  H          -0.53688573522997      0.62057732979591     -1.12748159058028
  H           1.17531232544090      1.78798269868678      1.14866374882752
  H          -1.78173131386589      0.97516557698872      1.13480555733656
  H          -0.76044519337924      1.36643274463139      2.57290322945066
  F          -1.50203399974751     -2.11758639187527     -1.28389320891073
  H          -2.50120772760769     -1.07853060360442      0.09360333388517
  H          -2.01233051038486     -2.73751682305742      0.53982580108461
  F           1.81147718453816      0.29983619738129     -2.38244001203851
  F           1.08997327194912      2.30802870135211     -2.15929535749657
  F           2.60695955808249      1.56551442428104     -0.83714178159060
