20
Coordinates from ORCA-job NEB_product E -46.066743988390
  C           2.16713656369012      1.54170075146851     -1.97292833668928
  C           0.76374217795957      1.27328414987505     -2.53035715309151
  Cl          2.07895733527201      0.89635120641301     -0.29989717317323
  H           2.94072686985293      0.96983729075615     -2.48976520752805
  C           0.62909646826679     -0.10553961477598     -3.14408670521198
  C           2.49213590223611      3.03837615167092     -1.94329586277914
  C           3.58853926729787      3.37587323824227     -0.96894960624853
  C           3.44886446532263      4.26012425060100     -0.00134155984246
  O          -0.12169775625713      2.06999760608548     -2.43924664065143
  C           2.93094709427238      3.45480664086367     -3.34689107945795
  H           1.57882996472520      3.59647612186461     -1.70578074095632
  H           4.51687922075973      2.84262250161601     -1.11857393150387
  H           2.52692575321920      4.79552724607753      0.15292520372264
  H           4.25319974742243      4.48017999852677      0.67785743933382
  F          -0.66306893396635     -0.38568113192386     -3.46420059378702
  H           0.97465756012838     -0.87355858271573     -2.44215069095511
  H           1.21672979990491     -0.15033852580677     -4.07007521624062
  F           4.09159396358449      2.87768168095155     -3.70252978256509
  F           2.04550423042227      3.10162362266764     -4.29232591223078
  F           3.10630030588645      4.77295539754218     -3.44908645014409
