20
Coordinates from ORCA-job NEB_reactant E -46.063429980140
  C           2.44516080704212      0.57551868346528     -1.03894021746682
  C           1.29242402569408      1.11589438557757     -1.42307018244407
  Cl          3.82539855395570      1.36236680283846     -0.35984612806177
  H           2.59132768432747     -0.48539442520606     -1.15539541916923
  C           0.20058472444578      0.24114275280229     -2.00447879649563
  C           2.95828055981846      3.40829863842841     -2.98978319979737
  C           2.78711522561924      3.82089548494338     -1.74452137043652
  C           1.62832496514459      3.43606219935809     -0.87935429971089
  O           0.82752348791253      2.39463479204366     -1.39683429448373
  C           4.12825568721876      3.81191368037502     -3.82602772939660
  H           2.27442276131611      2.74088609404684     -3.49134676795853
  H           3.49678537906950      4.49221611339183     -1.28182269991403
  H           0.94685848764811      4.29210493582737     -0.80533787344201
  H           1.98125968395823      3.19542341945363      0.12920098252347
  F           0.58901309710896     -1.05899816921865     -2.13104943798021
  H          -0.07704345284214      0.60140882400949     -3.00137648813455
  H          -0.68044983784033      0.25976710948351     -1.35298809641755
  F           4.86626405982227      2.75254853137252     -4.20218941522376
  F           3.74217717085122      4.41788732671278     -4.96458433345563
  F           4.96181692972933      4.65932282029460     -3.20865423253457
