19
Coordinates from ORCA-job P E -33.769819146460
  C          -1.41928837096908      0.43412051400174     -2.28720725204546
  C          -0.10348407867774     -1.66103816695318     -1.12347710811639
  C          -1.48112161161927     -1.89494812576738     -1.65486700834298
  C          -2.12113070789580     -0.88368694418810     -2.21894002401288
  C          -0.82093364856995      0.80055384694460     -0.92042188521953
  C          -0.06921449704637     -0.37544610603932     -0.27106265612249
  H          -1.91501611330197     -2.87746481111660     -1.56862802651404
  H          -3.11692679862313     -0.94310189077522     -2.62443670856298
  F          -2.29004089750387      1.43427435475454     -2.66732063353584
  H           0.24109849727436     -2.50220512612990     -0.52256333362184
  H          -0.63161004095103      0.41454466005158     -3.05503616610421
  H           0.58936073833605     -1.53886269457914     -1.96215869858889
  H          -1.65010786204183      1.11165469978342     -0.28342157163067
  H          -0.51572252442943     -0.60066355840505      0.70187514522285
  H          -0.15880541417028      1.65834598094099     -1.04942732400190
  C           1.38155250922221      0.01651505838473      0.00358611689250
  F           2.04736528649886     -0.98981759548621      0.62156906210289
  F           2.05252756659520      0.25831884470816     -1.14924355996787
  H           1.47692796787306      0.91288705987032      0.63651163216972
