19
Coordinates from ORCA-job R E -33.675105149350
  C          -1.24797688708220     -0.06578020346916     -2.86558966974905
  C          -0.22389097272684     -2.74032400497314     -1.92254386050277
  C          -1.49505718119188     -2.35142024866564     -1.95087061612909
  C          -1.98284709603244     -1.04118978027066     -2.34592031793485
  C          -0.79627937748522      1.70337176297450      0.39641186932285
  C          -0.12700239598584      0.58592012053882      0.19887326308768
  H          -2.26789636274880     -3.03974291531815     -1.63730496666356
  H          -3.03632270806339     -0.84960036374476     -2.19346068864862
  F          -1.80002102817089      1.12227955466122     -3.17242249118518
  H           0.04226175816710     -3.73341804720398     -1.60475487209242
  H          -0.19498126581240     -0.08822813046833     -3.09583618506093
  H           0.58714022144941     -2.09429667223883     -2.21165079028291
  H          -1.86383856381481      1.69743567404489      0.52918941004973
  H          -0.60989967671243     -0.37847835153607      0.15943951804467
  H          -0.31325389120641      2.66583053899602      0.42821654877616
  C           1.35782943673235      0.54553033497072      0.00556022240237
  F           1.93311560899990     -0.32782507530559      0.87165066202331
  F           1.67360923529190      0.08769838551018     -1.23789017761169
  H           1.84602114639289      1.52346742149796      0.13492314215430
