17
Coordinates from ORCA-job NEB_product E -21.957133810070
  C           3.14498045408306     -0.70786727544427     -1.99771338054073
  C           1.74048113099665     -0.49214346819375     -1.51981696720860
  H           3.84463547003381     -0.45980352129008     -1.19754063430948
  H           3.25029383083881     -1.77155612301067     -2.23160794895450
  H           0.98630819183376     -0.54233373663165     -2.33136792237585
  C           3.44306887987026      0.11706787825607     -3.25998586484972
  C           3.27855140457192      1.57718258688368     -2.95481311444944
  C           2.41949824463746      2.37573013270948     -3.55787121476371
  O           1.41354752429720     -0.28876343656972     -0.38550623060309
  C           4.86431148575291     -0.16327626416488     -3.75054916704070
  H           2.73274385784384     -0.16745808807653     -4.04374760343670
  H           3.93111423736344      1.95957208765874     -2.18094910028617
  H           1.75935507132299      2.01959060367371     -4.33235811093156
  H           2.33645368906208      3.41912554205215     -3.30675641313545
  H           4.98592506412193     -1.21726841534678     -3.99017947733274
  H           5.59051085070869      0.10392739821289     -2.98614091831720
  H           5.07442061266119      0.42157409928160     -4.64289593146435
