19
Coordinates from ORCA-job NEB E -38.045648634930
  C          -0.08424157245544      1.30861713841845     -0.08136276008771
  C          -1.28096582494429      0.80998704456133      0.42830543525900
  H          -0.03102824481840      1.48605753208842     -1.14263329267027
  H           0.47527196043625      2.00732531128315      0.52316042646494
  N          -1.56112220658561      0.88976450695021      1.77527872214079
  C           0.89912657579067     -0.41426526983271     -0.09214854256284
  C           0.08888136401207     -1.26008575003361     -0.84016023306554
  C          -1.23972653341761     -1.47411314529773     -0.32939897712641
  O          -1.96083222156741     -0.07833908514728     -0.25801938213985
  C           2.24424766665558     -0.04538122159967     -0.64668664905220
  H           0.93648867313649     -0.53771472155510      0.98521134462761
  H           0.23225395381762     -1.29322738657791     -1.90962603237723
  H          -1.28135711378702     -1.81552482576221      0.70493626890018
  H          -1.89844719364620     -2.04834140458409     -0.97098100603847
  H          -2.46500425785810      0.54822516546680      2.06001432539538
  H          -1.21454112564535      1.68754072047310      2.28005767657321
  F           2.19917865100731      0.37147144691915     -1.91952100682374
  F           2.83638837911635      0.93900164642243      0.05371309105069
  F           3.10542907075312     -1.08099770219274     -0.62013940846753
