19
Coordinates from ORCA-job NEB_reactant E -38.062404774770
  C           1.09884930728967      0.07622662693187     -0.04314225215196
  C           1.64403753292628     -1.04662361313980      0.41586029539360
  H           0.44233787894088      0.05593658469107     -0.88951063268182
  H           1.29490089085222      1.02142714170036      0.42413454638692
  N           2.60400503994260     -1.10271483513289      1.42631713118733
  C           4.60980008168243     -3.60074984932950      0.42304812895910
  C           3.60569897976656     -3.01490916614021     -0.21046823588425
  C           2.16413820765761     -3.34010735909278      0.02123111518508
  O           1.30614297718011     -2.23910722086897     -0.17160977522954
  C           6.04187774755313     -3.27275762898527      0.15637320228310
  H           4.47428588638418     -4.35812936736150      1.18027824693438
  H           3.79104098484527     -2.25761119770778     -0.96003978788167
  H           2.02244299345871     -3.79073576060328      1.01435213819965
  H           1.83658187207516     -4.06981372947148     -0.72905965697016
  H           2.44827440517147     -1.81575325488019      2.12542959101184
  H           2.77190735118494     -0.20063978025492      1.84599645907105
  F           6.21602879052767     -2.35300189601581     -0.79929929372582
  F           6.66134622084092     -2.80386963372195      1.25702263729394
  F           6.74380285172017     -4.35786606061698     -0.22441385738078
