19
Coordinates from ORCA-job NEB_product E -38.103790475040
  C           3.20529517353227     -1.05364929578696      0.26374388326841
  C           1.77803593106670     -1.16034305269049      0.79098441750387
  H           3.16670449299548     -0.66263667288186     -0.75405304501603
  H           3.79345589644650     -0.37733775074398      0.88646718470472
  N           1.69796503315251     -1.20843592488512      2.14065526568243
  C           3.84575271589361     -2.45157909099004      0.24939223386971
  C           3.12541551414176     -3.37067568475170     -0.69765440233807
  C           2.58057181643291     -4.51440957780208     -0.33399492433422
  O           0.80889864105008     -1.23124559013005      0.07652066430889
  C           5.30684973133724     -2.32954132324433     -0.17272055677512
  H           3.85141693257833     -2.88031112784691      1.25775268891202
  H           3.07154851885225     -3.02395717298380     -1.71947804282547
  H           2.62233946403867     -4.87050781128393      0.68235069423521
  H           2.06484392584606     -5.14033888302481     -1.03985888888751
  H           0.78836764298436     -1.27166775892512      2.56715282320827
  H           2.49779351233192     -1.08385230766383      2.73462152651949
  F           5.45869386179881     -1.79828554179244     -1.39111817312998
  F           6.00744185781409     -1.54890121901663      0.67205404291387
  F           5.93030933770644     -3.51632421355595     -0.18641739182050
