18
Coordinates from ORCA-job NEB_product E -33.842838506060
  C           2.14655678282310     -1.78398806947295     -1.85161532431361
  C           0.82751853041757     -2.52762163827471     -1.58520799835455
  Br          2.19444728659898     -0.13495611253465     -0.77020665601315
  H           2.96815965751676     -2.39719300820786     -1.46257877110826
  O           0.39638481929650     -2.53166413429793     -0.33182041121221
  C           2.38388580940214     -1.45522945891497     -3.32734065963160
  C           3.54393890769176     -0.51044205977146     -3.48176586662154
  C           3.46969123802262      0.64976951206624     -4.10383471407915
  O           0.25037219240482     -3.10875446595041     -2.45645863996627
  C           2.68201697176151     -2.74310173811493     -4.11107132902095
  H           1.47980833941637     -1.00138690539093     -3.74692600802385
  H           4.47751019742105     -0.85409732693627     -3.05409389915740
  H           2.55022836283003      1.00164370725726     -4.54148211771344
  H           4.32521082940446      1.29452204443779     -4.20261477977289
  H           0.89567194413760     -1.94596022027687      0.26255700514818
  F           2.89799728907606     -2.43298181933372     -5.42708374697607
  H           1.83851699456285     -3.43689587744432     -4.07750805753102
  H           3.59628384721582     -3.22676242883932     -3.74734802565223
