18
Coordinates from ORCA-job NEB_reactant E -33.824082808250
  C           0.98529824238084     -0.69260817210986     -0.47605032761553
  C           2.07853743550801     -0.55539150147689     -1.23117060075004
  Br         -0.65564963414548      0.05625440017139     -1.03397287213512
  H           0.96424271008039     -1.19756674582746      0.47128489769777
  O           3.28149343635113     -1.08909849436236     -0.89350545612537
  C           2.28192322840887     -2.16877884610402     -3.99798244337992
  C           3.24847907937370     -1.26811022961045     -3.95801541896396
  C           3.15876882588015      0.04683176116350     -3.24295243824540
  O           2.04362876936830      0.14461455810648     -2.37261926669797
  C           2.37265443108220     -3.47675263348943     -4.71388594503121
  H           1.33250494415225     -2.00578842427082     -3.50723556023496
  H           4.18628107728290     -1.44348253140293     -4.46465412570363
  H           3.01212378936942      0.85609232224596     -3.96574444591985
  H           4.08809401975891      0.23229281953216     -2.69190404536423
  H           3.22149855432386     -1.55398400279877     -0.05234265425491
  F           3.59046638332674     -3.65386567158308     -5.31942026500119
  H           1.61255652610870     -3.54045200621925     -5.50277132013850
  H           2.23989818138909     -4.31530660196416     -4.01825771213598
