20
Coordinates from ORCA-job NEB E -44.063344788710
  C           0.02125284362080      0.90521233878212     -0.55375735932366
  C           0.02017223810125      1.63556302297199      0.64948801412804
  C           1.09105610678301      1.11754830902196     -1.57814842776728
  H          -0.96615765407774      0.81374304182601     -1.00076826780072
  Cl          1.56817133096460      2.20619992636776      1.28143693189432
  C           0.03309112761162     -0.92888322208605      0.25378466043314
  C          -1.05924834483662     -0.86071901930476      1.12358787073632
  C          -1.01433160613166      0.00788861543743      2.22393307831169
  O          -0.93489218111390      1.55704913721688      1.45949764579104
  C          -0.04962894680073     -1.90564178807845     -0.89246252800889
  H           1.02661223918425     -0.86894823651247      0.68601519945052
  H          -2.02462634014206     -1.16348996405357      0.74272713879516
  H          -0.08948035345681      0.07970600844820      2.78504739688698
  H          -1.90539006180540      0.12319948488577      2.82367942556481
  Br          1.41560323405302      3.04412424190343     -1.87676181934094
  Br          2.80856164336972      0.31244788095187     -1.12166657860945
  Br          0.55888645102940      0.41138000566161     -3.31946677986821
  F          -1.23111469939458     -1.76318878107378     -1.57109863099665
  H          -0.02950202763436     -2.92916316048773     -0.49808704651382
  H           0.76096500067619     -1.79402784187822     -1.61697992376238
