20
Coordinates from ORCA-job NEB_product E -44.097098901080
  C           1.77157989981140     -2.07884321233126      0.37099972782619
  C           3.07561802630073     -2.11644082678105      1.15307156709316
  C           1.94723922686949     -1.47589278758610     -1.01753375669294
  H           1.16213356863863     -1.34157699371269      0.91867220524173
  Cl          4.23241501760904     -3.33048560554016      0.63050917740744
  C           1.00763978962058     -3.43161517332102      0.52798425917443
  C          -0.48212567123670     -3.17579458919235      0.59582893399994
  C          -1.08039028237925     -2.66369179979613      1.65434600535127
  O           3.31661151971156     -1.43198704904026      2.08966208144198
  C           1.29915738415016     -4.52857382246141     -0.49620847403194
  H           1.33048277530152     -3.82705582273094      1.49898770305768
  H          -1.04624425960295     -3.43342420747442     -0.28802657223122
  H          -0.53782109791475     -2.39856903064798      2.54832803108064
  H          -2.14112931144617     -2.48904329168806      1.66975467067673
  Br          0.21621391596582     -1.17424016033534     -1.85335213588679
  Br          2.77141523102770      0.30722787293602     -0.78134040128340
  Br          3.07071281904098     -2.42029913751988     -2.27606261620323
  F           0.76707354010849     -4.22247734689247     -1.72093424929610
  H           0.81409826654441     -5.45483545877930     -0.17105744298422
  H           2.36811964187930     -4.70338155710522     -0.64032871374134
