23
Coordinates from ORCA-job NEB E -48.060837672200
  C           0.39378115792829      0.71130416795675      0.77084318100286
  C          -0.19054961280976     -0.55428875657258      1.03005969005490
  N          -0.49718664105437      1.84369669840640      0.88305902032406
  H           1.35363757769543      0.90537015333987      1.23930471091060
  O           0.56105889670788     -1.41711250531393      1.73371468819294
  C           0.63004171407330      0.56071215455140     -1.14421386610136
  C          -0.67215942167342      0.34410487938335     -1.59420994721052
  C          -1.31894567711859     -0.84956807629753     -1.14507960679588
  O          -1.27925093181426     -0.94031963726478      0.47440647839910
  C           1.36346009039347      1.80670832902378     -1.58257048332679
  H           1.31301611496853     -0.28315774622868     -1.10140715246203
  H          -1.28027927769631      1.19017003379733     -1.87018626037278
  H          -0.80583092393721     -1.78116394779220     -1.37407999878748
  H          -2.38248442552231     -0.90518899566173     -1.34164212106697
  O          -0.07462171755888      2.79447509041702      1.50191543177224
  O          -1.60121619731459      1.74542689736949      0.39734745001228
  C           0.01966748476073     -2.71000684326081      1.96148459235813
  H           0.72961582958496     -3.21431484723289      2.61193284429974
  H          -0.08772366732357     -3.26037845112198      1.02446600078198
  H          -0.95580404588129     -2.63801239986374      2.44632190529690
  F           0.63082151102430      2.92415563204215     -1.40507035603690
  F           2.50455064632769      1.96815519293915     -0.86819652540479
  H           1.64640151623999      1.75923297738418     -2.64819967584025
