23
Coordinates from ORCA-job NEB_product E -48.110514393800
  C           3.05840064114421      0.08649308926959     -1.91303786577806
  C           2.21058346886794     -1.10539820402218     -1.44308148790899
  N           2.83772630037719      1.18791670956497     -0.92204149827605
  H           4.11878323249637     -0.18075811894266     -1.84947768228270
  O           3.00346607896514     -2.11718610150522     -1.11291864594205
  C           2.68352362606504      0.45121813768851     -3.36454681057841
  C           1.23590820844580      0.80796535564497     -3.56326675851328
  C           0.44595292947240      0.14862863688797     -4.38841019244315
  O           1.01613686292716     -1.10889447133594     -1.38755861313673
  C           3.59109481913317      1.58420911193655     -3.86471589142037
  H           2.92761432918831     -0.42229128264225     -3.98221685725358
  H           0.87223985447949      1.64604130780830     -2.98947374592868
  H           0.78956983078284     -0.69816715869497     -4.96113986453042
  H          -0.58450823253504      0.42642146600485     -4.51710802303959
  O           3.75027440867379      1.38208079816687     -0.16159038717326
  O           1.77696992530379      1.74673363051671     -0.91561890244765
  C           2.35869436567623     -3.29643846598148     -0.63840184441583
  H           3.15286273526031     -3.99960332810555     -0.40404016901551
  H           1.69848671166924     -3.70035424588682     -1.40768425043846
  H           1.76855749349039     -3.07021224274811      0.25097686085723
  F           3.56839553303111      2.65066286119857     -3.03924019687437
  F           4.88056232329302      1.16465768635321     -3.90580536659495
  H           3.31330455379212      1.92647482882410     -4.87280180686514
