23
Coordinates from ORCA-job NEB_reactant E -48.096936964860
  C           2.26711486780245      0.38598495240635     -0.78615050795719
  C           1.98779453009026     -0.92566006284061     -1.04495306909027
  N           1.71873664327104      1.51140070414770     -1.39366133064947
  H           2.96883893436344      0.59654516383931      0.00421892593592
  O           2.45141633029353     -1.79728832048590     -0.14782221375108
  C           2.51718211484235      1.09743282123538     -4.27161356586667
  C           2.49107298557724     -0.12212884133822     -3.76107127625961
  C           1.23488223018987     -0.81303742041576     -3.33016368465348
  O           1.39446259459904     -1.49482928037884     -2.08599912561398
  C           3.77650497363152      1.80483346975286     -4.66422543934194
  H           1.61926208634544      1.67813610949900     -4.42375541566948
  H           3.40899307981725     -0.67703324397083     -3.61367832283286
  H           0.97810804875448     -1.61536156116154     -4.02929558531264
  H           0.40601228538107     -0.09907415348252     -3.26641976627057
  O           2.36790496893690      2.54399282189732     -1.35563555749182
  O           0.61034031199657      1.43109600007304     -1.91064247851303
  C           2.31832481127443     -3.18550402991924     -0.42003693487382
  H           2.79760147381214     -3.68798877347825      0.41654845648681
  H           2.81674271174586     -3.45212032619841     -1.35418202788262
  H           1.26676865560520     -3.47203207080324     -0.47846827634255
  F           4.86387575812551      1.00080687908908     -4.57650235389745
  F           3.71704986301996      2.22040766328083     -5.95532652091519
  H           3.95890974052442      2.69292149925248     -4.03476392923702
