16
Coordinates from ORCA-job NEB E -26.402292117630
  C           0.03247031826898      1.16485142542694     -0.65020599626142
  C          -1.17592183860987      0.95077829587714      0.05490484715232
  N           0.20324047388805      0.60361876083995     -1.90196261119088
  H           0.51486640139601      2.13232659970954     -0.54805586482197
  H          -1.41394541326919      1.65651483500988      0.85946024255553
  C           1.10726647006780      0.06179569365273      0.60032922240597
  C           0.49738550264406     -1.19337336606754      0.54282648526353
  C          -0.78290102300236     -1.34020745502753      1.06916041679020
  O          -1.72981364479424     -0.19140295057682      0.04521775046067
  F           2.32292177262125      0.18972540604613      0.00712026864452
  H           1.06872366444725      0.67239358524509      1.49547081506967
  H           0.82910963039024     -1.86471333963575     -0.23720700343737
  H          -1.02018728694648     -0.86023345568932      2.00794710781415
  H          -1.31088999463919     -2.26395826547735      0.89355805495340
  H           1.15851729310287      0.54912562148477     -2.22545309174594
  H          -0.30084232556518     -0.26724139081785     -2.01311064365237
