16
Coordinates from ORCA-job NEB_reactant E -26.428045141770
  C           1.87961405474473     -0.02558055158833      0.23261303742648
  C           1.42645487724725      0.04036481459045      1.48280487122633
  N           2.42676250245936     -1.10576185965889     -0.47346655709101
  H           1.93758264682794      0.91160290542083     -0.30166935337528
  H           1.09341342468596      0.99666194083096      1.85834111627071
  C           4.19334968497837     -2.25468265763116      3.42170119257686
  C           3.41374561984199     -1.95956798403686      2.40089498934175
  C           1.92450901843124     -2.12930856173454      2.44957269519152
  O           1.22154821044251     -0.90436869303602      2.46385687336856
  F           5.52487536853940     -2.09300022369566      3.36635753815345
  H           3.87711362849923     -2.66081757020865      4.37221543880599
  H           3.83261593425690     -1.54555717815054      1.49569049167900
  H           1.63043814427238     -2.61561349343339      3.38469015317197
  H           1.59086110117616     -2.76527691034356      1.61697135536079
  H           2.42329579380747     -0.96411534502680     -1.47213914342173
  H           2.05231998978912     -2.01037863229784     -0.23203469868539
