18
Coordinates from ORCA-job NEB E -38.103038481550
  C           0.22844577730460      0.95763250684375      1.07377645908444
  C          -1.17901435238454      0.89394958782950      1.17274498531330
  O           0.78501333467305      1.88893822417712      0.27370279360106
  H           0.84574789251627      0.74856002406952      1.93856813819503
  H          -1.61868497337293      0.31152612662823      1.98604072397393
  C           0.34737409303698     -0.73469686684703      0.02531486801098
  C          -0.37575216328735     -0.38896247352109     -1.12718541433445
  C          -1.75716168251708     -0.21137363998911     -1.02589972189324
  O          -1.86025595577666      1.14755638290780      0.12477018691830
  C           1.81019657947656     -1.04683653178492     -0.09960320984565
  H          -0.12962083749214     -1.40520443090558      0.73291462861818
  H           0.15734430414522      0.09416506091385     -1.93361123021506
  H          -2.32882115311320     -0.90849118469145     -0.42868869348732
  H          -2.28925268630257      0.18476287437702     -1.87742784173645
  H           0.10564108164999      2.18857507820937     -0.35422836681021
  Cl          1.95701734068802     -2.64701884107636     -0.91352109729225
  Cl          2.71258939547573      0.13024005886569     -1.05865630793040
  Cl          2.58919400528003     -1.20332195600630      1.49098909982980
