18
Coordinates from ORCA-job NEB_reactant E -38.135139329530
  C           2.36254356040412     -0.28306987237863     -0.50879614135880
  C           1.29385123782652     -1.07117169483109     -0.44852393955337
  O           3.18030130015265     -0.10813188930804     -1.60404681191592
  H           2.60780371285201      0.29957992105154      0.36826905276250
  H           0.70544162106107     -1.07618102150428      0.45642444336464
  C           3.84922870585479     -2.75682667847621     -2.88124896421213
  C           2.68828404428858     -2.97493895181573     -2.28531152422682
  C           1.45525159409623     -2.16575682079833     -2.55252751687232
  O           0.73361823998352     -1.90831917477241     -1.36647377553147
  C           5.10829003723445     -3.49740363068089     -2.62467026663238
  H           3.95829223557144     -1.96357119256989     -3.60740311903974
  H           2.57200312874401     -3.74979550697566     -1.54050972575775
  H           0.76565506191334     -2.75048429360762     -3.17227451167823
  H           1.70900114108078     -1.23634212168995     -3.07094500280715
  H           4.02412078912195      0.25473594405058     -1.31937552154555
  Cl          5.77350206863096     -4.12176249942137     -4.16407277468945
  Cl          6.31071356182491     -2.36364402575057     -1.93225776256513
  Cl          4.93269795935869     -4.85561649052145     -1.50785613774094
