19
Coordinates from ORCA-job NEB E -44.384657241700
  C           0.63398691710504      0.74976906503205     -0.78707049485857
  C          -0.76989742229740      0.67477292108016     -0.92315556994286
  Br          1.67545443262598     -0.06833945012660     -2.17306853972867
  H           1.06606744545360      1.70243516757423     -0.49411995127182
  C          -1.61122183516813      1.72909934031330     -0.21532486836348
  C           0.83787364139534     -0.39019474316755      0.71130476960148
  C           0.23096952890080     -1.58652229701017      0.29892979336552
  C          -1.15508877633431     -1.57386645282642      0.01539951935451
  O          -1.32128565314715     -0.45612329405285     -1.19965169908352
  N           2.28552995168198     -0.42776920335870      0.93260733589102
  H           0.36405284385377      0.23742336216959      1.46186934003741
  H           0.86859730718867     -2.32373179860524     -0.17187800649761
  H          -1.80934461776812     -1.12983667947790      0.75964376572857
  H          -1.56843916409648     -2.46483276895994     -0.43930744634441
  F          -1.64562782073082      1.49402095982832      1.13210511739552
  F          -1.07899103202133      2.95791619808766     -0.36394319768328
  H          -2.64836140426112      1.73741959400753     -0.57865190407049
  O           2.92052225611918     -1.26271112786925      0.34240318679045
  O           2.72520340150049      0.40107120736179      1.69190884968023
