19
Coordinates from ORCA-job NEB_product E -44.417972006430
  C           2.95718319067877      0.16423827380126      2.22882324049167
  C           1.45468356453582      0.35130091333513      2.18690531349424
  Br          3.50825900648534      0.18289157550346      0.34026588166508
  H           3.43928863310667      1.03635033768071      2.68183125603273
  C           0.99832158776215      1.72343127097368      1.64217020980852
  C           3.35376851927962     -1.12753963829160      2.94655558927095
  C           2.99815524127893     -2.37764240003711      2.19646942902227
  C           2.13617344371989     -3.27035763177662      2.64235368692428
  O           0.66117894199357     -0.48098883750859      2.50903337773823
  N           4.83913564248431     -1.09693728488912      3.15485079110043
  H           2.89315469186320     -1.12151900729676      3.94148532752180
  H           3.52309637725519     -2.50915519244084      1.26021265794909
  H           1.61130129295060     -3.14520733812351      3.57443184114370
  H           1.90824770600356     -4.15532769351984      2.07568399365431
  F          -0.08746492281608      2.13866919847850      2.31846792519019
  F           1.95168690559216      2.66594148807912      1.80493582663914
  H           0.74115358920706      1.66504306606487      0.57123750074805
  O           5.52946653869619     -1.19292463196217      2.17608519076121
  O           5.21831004992308     -0.96466646807055      4.28950096084410
