19
Coordinates from ORCA-job NEB_reactant E -44.419420447770
  C           2.39648995575621      0.26248408821133      0.65408915068952
  C           1.56586050801444      0.16611125534251      1.69251287529848
  Br          3.45783496916665     -1.08102001436970     -0.15107971004830
  H           2.52245011892574      1.21037787647605      0.15938869499125
  C           0.84539493646094      1.43118346539846      2.14485555840220
  C           3.85194247561987     -1.19053331232022      3.48493361539567
  C           3.21587406068395     -2.16925781183604      2.85262912551890
  C           1.79047680451650     -2.12449326131348      2.41637796760180
  O           1.19676191710688     -0.84599842716497      2.50022457777060
  N           5.22992420626022     -1.33259847324160      3.86258533031530
  H           3.42592712059513     -0.23774168729274      3.76224457522851
  H           3.74942225685717     -3.08521755014089      2.63146230133915
  H           1.19463699190632     -2.74072163950555      3.10082494755319
  H           1.68543011254949     -2.54847785363066      1.41151829804830
  F          -0.48656276639214      1.23061216205038      2.18648216678786
  F           1.23188836991761      1.74775061011362      3.40151697607585
  H           1.04343595170029      2.29829697323151      1.49834644679571
  O           5.77545038834445     -2.39350365750977      3.65659769378331
  O           5.75146162201027     -0.36285274249825      4.36648940845268
