21
Coordinates from ORCA-job NEB E -33.365972859850
  C           0.21696080998574      0.95495061013012     -0.73276214669889
  C          -1.17567852919787      0.78888588776148     -0.84895102299751
  F           0.98976492134695      0.81037521423621     -1.83583556392649
  H           0.60619440852017      1.76811237680312     -0.12406134366270
  C          -2.04856987819897      1.35986658014947      0.24212043327396
  C           0.68856491589830     -0.67939951384903      0.20226301971731
  C           0.19813699128920     -1.63146285655802     -0.71229301561874
  C          -1.17848792452579     -1.70317455309990     -0.95292982107838
  O          -1.62711299705003     -0.15303631679877     -1.59288296424386
  O           2.03877762252227     -0.63987476039836      0.37906655154827
  H           0.11121731417107     -0.49649899959280      1.11319002545851
  H           0.89001637580122     -1.96133405400081     -1.47155498914810
  H          -1.84830539041920     -1.67388221064124     -0.10078037262753
  H          -1.51310566896729     -2.35386502650947     -1.74699356304652
  H          -3.06447621685367      1.45917882406933     -0.13064276467938
  H          -1.68674487682996      2.32813889409274      0.57349606636351
  H          -2.07196465891106      0.67972484129395      1.09735237140995
  C           2.51209714689745      0.13814257037821      1.45151887986083
  H           2.41016455305108      1.20977549618866      1.24935533377034
  H           3.56765918720669     -0.10324455396004      1.55946085954308
  H           1.98489189426369     -0.10137844969485      2.38186402678235
