21
Coordinates from ORCA-job NEB_reactant E -33.406913215930
  C           2.51481415401051      0.14036481214959      1.03624881208336
  C           1.46215276454688     -0.34170286034945      1.68968421825942
  F           3.56037758883444     -0.58733624042005      0.56454144139039
  H           2.63966354828473      1.18802253541749      0.82096432387148
  C           0.38017804709233      0.59060933476649      2.15419171334381
  C           3.44942241195108     -1.90264235808706      3.67905127131697
  C           3.35486835837398     -2.59251132259675      2.55053208023498
  C           2.09239223852595     -2.65331181585453      1.73773546165315
  O           1.16515414437436     -1.62338197262269      2.02491976740599
  O           4.52384723746700     -1.75042051472995      4.48771046949357
  H           2.60741351781636     -1.35658650115773      4.08289179863869
  H           4.18339462809266     -3.14119541282636      2.13412084820560
  H           1.54182194664722     -3.57583673106399      1.95966393333312
  H           2.34232925602462     -2.65758355648251      0.66971699263428
  H           0.32206130461955      0.56957797280642      3.24065944046057
  H          -0.57806193159579      0.25409196969220      1.76453381701539
  H           0.57039260740315      1.60570242285596      1.82414467346161
  C           5.72394422727700     -2.37080279656845      4.09066378607240
  H           6.46448697705223     -2.10395018781400      4.84244743294941
  H           6.04811676762065     -2.00908126460453      3.10998932357517
  H           5.61463020558109     -3.45942551251011      4.05458839460066
