17
Coordinates from ORCA-job NEB E -29.993458586850
  C           0.68829557179529     -0.42356897878781      0.68445123341622
  C          -0.71655472194320     -0.53769052176937      0.38685938558337
  Cl          0.99566797935113      0.79977786512289      2.01236549854282
  H           1.12721108760258     -1.35235752154356      1.04356280902847
  C          -1.48011461942746     -1.80318281328452      0.54916214012509
  C           1.43513238452800      0.10969542265235     -0.59975236092768
  C           0.74894410439174      1.28954772127590     -1.08577404312183
  C          -0.63264948348912      1.57860896645773     -0.61163515898188
  O          -1.38212836979836      0.49500371648312     -0.14004407432478
  Cl          3.20347880546730      0.44444303773887     -0.21552238700392
  H           1.51145925706351     -0.73655671876860     -1.28646585172930
  H           1.33900044946310      2.17245123750507     -1.27218697356407
  H          -1.24138768662923      2.00436165904044     -1.41726418773584
  H          -0.57854399865099      2.33574830963843      0.18520842595908
  H          -1.03074760756525     -2.60409714135805     -0.04100668617721
  H          -2.50236048345724     -1.64825602464566      0.21708507927769
  H          -1.48470266870179     -2.12392821575722      1.59095715163377
