17
Coordinates from ORCA-job NEB_product E -30.051652286590
  C           3.27726306606146     -1.05674480824673     -2.22773631838902
  C           1.78378638049016     -1.37087379959313     -2.38651268378815
  Cl          3.81543467876841     -0.99026930698110     -0.53514768454274
  H           3.85423512942076     -1.85062010981560     -2.71194285609185
  C           0.93575436054546     -1.29364930813065     -1.15982898386178
  C           3.55137113010117      0.27046859994026     -2.94257515915438
  C           2.87811415004206      1.43256036207017     -2.29406522554022
  C           2.02541633752453      2.22026541647448     -2.92249539497933
  O           1.36473354921365     -1.63527770306735     -3.48249960221147
  Cl          5.32565855095735      0.57658744524296     -2.96805852804843
  H           3.24039470006565      0.16554021675515     -3.98580642466926
  H           3.14965884000723      1.60591035632326     -1.26221130993138
  H           1.75719309671137      2.05964577332524     -3.95352564489972
  H           1.55907619589058      3.05461800329762     -2.42830059663475
  H           1.25687554276043     -2.05005044556240     -0.44630797020252
  H          -0.10610002380767     -1.45453657105985     -1.42280043992187
  H           1.06093431524740     -0.32107412097233     -0.68878517713312
