22
Coordinates from ORCA-job NEB_reactant E -51.949244941620
  C           1.37734402036398     -0.44166438484373     -0.14947255883216
  C           2.09573458682781     -1.49179008336742      0.32670046275362
  C           1.93029104466839      0.54748114822734     -1.05703183571847
  H           0.35699777989807     -0.29183913199719      0.15480797330197
  N           3.39049380458688     -1.73910115630756      0.00832214669043
  C           0.75257074040949     -4.64529294796057      2.55162325476385
  C          -0.11931571250578     -3.71759509270278      2.19455133840642
  C           0.22074573459536     -2.49037528305995      1.41597177588047
  O           1.60285603810072     -2.45900545023939      1.13194292479891
  C           0.36911013287475     -5.85993590232964      3.33488883715271
  H           1.80030343691268     -4.58985739393953      2.30386629545423
  H          -1.16409603354903     -3.80374553537481      2.45932842260027
  H          -0.07073769166846     -1.60811234681403      2.00496719859663
  H          -0.36248532906479     -2.48739429825959      0.48374154278476
  Br          0.60751752758031      1.85835325198270     -1.58607327372535
  Br          3.48100303173723      1.59881509056383     -0.23166358656041
  Br          2.69123529548669     -0.24203324191711     -2.72527076764155
  H           3.82202909140316     -2.50652057511136      0.49566653456393
  H           3.99653188869807     -0.98047439349508     -0.25746119247776
  F           0.66264677985882     -6.99301637694963      2.67409952321347
  F           1.02912854494256     -5.92719371906182      4.50444251590751
  F          -0.93660471215693     -5.91520217704267      3.62905246808655
