38
Coordinates from ORCA-job P E -45.467353941140
  C          -1.43102104314167      0.29666090734421     -2.39417521690721
  C          -0.27075029069783     -1.81731067921384     -1.08393705240085
  C          -1.64322618324250     -1.99250400222887     -1.65171252926968
  C          -2.19731128020084     -0.98908655184516     -2.31176275738545
  C          -0.94242080196773      0.64066044730347     -0.97126248797360
  C          -0.12331444213440     -0.48705469169503     -0.31109144323573
  H          -2.13320740052404     -2.94685260385300     -1.53128729659742
  H          -3.17326524971838     -1.04896308712729     -2.76750927797633
  C          -2.23691989522795      1.43570215997995     -2.95323734062843
  H          -0.02520180782424     -2.65219331293342     -0.42899600078047
  H          -0.54724860725281      0.14183836121901     -3.02570267963445
  H           0.43860840242808     -1.82465035531649     -1.91680393848040
  H          -1.82488632346075      0.84623241928794     -0.36269448799372
  H          -0.55220650646930     -0.65999152254607      0.68253174535275
  H          -0.36885249908897      1.56503402166525     -1.02114991398811
  C           1.36326421249697     -0.10641956509816     -0.07199689035210
  C          -3.50675465682266      1.71237546505465     -2.45972556882383
  C          -4.24439354409393      2.76932956913379     -2.96045524659652
  C          -3.72136871334789      3.57000281882672     -3.96180068967828
  C          -2.45680443598677      3.30611682241507     -4.45789848247622
  C          -1.72157636231634      2.24671935701011     -3.95565134623377
  H          -3.92155780131005      1.09189664741290     -1.67796566986959
  H          -5.23111483556008      2.97015315921385     -2.56824338393279
  H          -4.29735935701362      4.39556431775829     -4.35357117594809
  H          -2.04171923913581      3.92628999100858     -5.23939187026863
  H          -0.73487342971323      2.04538612500827     -4.35019509225953
  C           1.43179277904001      1.03092479332042      0.95537510437991
  C           2.12271229295268     -1.30185755567766      0.51793004574588
  C           2.07180220611562      0.33507779059272     -1.35524277126050
  H           0.97985610174567      0.72125202586295      1.89531099985951
  H           0.91497494611052      1.92139338355740      0.60844932267652
  H           2.46830912493206      1.29929512653222      1.14857956282495
  H           1.59735865208584     -1.70318667159316      1.38196727330395
  H           3.11336067850940     -0.98816759660981      0.84065331058572
  H           2.24689481102394     -2.09548138856004     -0.21342188547643
  H           1.61344462784698      1.22416945128492     -1.77955664832307
  H           2.05632542042558     -0.45151892554428     -2.10565617390441
  H           3.11253045053845      0.56643334904963     -1.13765204607358
