15
Coordinates from ORCA-job NEB E -30.450977501790
  C           1.21957269744598      0.67796172197269     -0.33683168383188
  C           0.55717802087678      1.07368094579841      0.83689755101264
  O           0.88975689777040      1.23922774138645     -1.51670666561356
  H           2.27712944862433      0.44133042330509     -0.29733218652193
  Br          1.43237946504585      0.49663566828989      2.49148127025242
  C           0.35872950498206     -1.14725715690593     -0.41927860712675
  C          -0.99535660370031     -0.81642540600294     -0.43247537991872
  C          -1.56845026330878     -0.24930189778536      0.71487843733366
  O          -0.68218087630358      1.26813103441509      0.87216546292212
  Cl          1.06585820518713     -1.80440367480576     -1.86035108679446
  H           0.81083070248743     -1.55783564980398      0.47659635956059
  H          -1.47164305580051     -0.65890768974401     -1.38997714154130
  H          -1.28983018266588     -0.64777008548774      1.68316514284071
  H          -2.58643990888621      0.10611246736911      0.65791740040276
  H          -0.01753405175468      1.57882155799897     -1.48014887297631
