15
Coordinates from ORCA-job NEB_product E -30.485659081770
  C           1.51816202122203     -1.73175885314910     -0.67839482982502
  C           0.96529020498933     -0.82076541293451      0.38814593607355
  O           1.12079421095446     -1.22964924069869     -1.91175228631957
  H           2.61885716002200     -1.74765757517090     -0.58542354527234
  Br          1.76246772612756     -1.24574457844880      2.13238224925011
  C           0.97854104999626     -3.15753706153239     -0.41007482863089
  C          -0.51008582063713     -3.17384410067473     -0.32625813098722
  C          -1.16944885899556     -3.69821756769189      0.69039110314184
  O           0.16852476641090      0.03714442491152      0.31398066095710
  Cl          1.51089661853169     -4.19041332187209     -1.79393364649985
  H           1.43962908616983     -3.58271046094904      0.48366111056642
  H          -1.02331257115808     -2.71134795709671     -1.15769234759489
  H          -0.66202329214267     -4.15727818468791      1.52327325189371
  H          -2.24418558969526     -3.68352238453889      0.73064713692955
  H           1.22149328820464     -1.93179772546587     -2.57245183368250
