15
Coordinates from ORCA-job NEB_reactant E -30.209902082830
  C           1.25814320940888     -0.42874309770842     -0.28629217800851
  C           2.27400339104734     -0.63949883030242     -1.11331340567514
  I          -0.37349097187480      0.71010482029047     -0.93000284186793
  H           1.22005777368403     -0.78763187214941      0.72223234620903
  Cl          3.60504456627387     -1.61656287477683     -0.56474692510576
  C           1.61499611130026     -2.57814337036271     -3.54094135210914
  C           2.82969045525496     -2.06727596068481     -3.69110524219952
  C           3.19457093757470     -0.66191568303252     -3.31037891916556
  O           2.33599931636946     -0.10013262909103     -2.32995825852536
  O           1.24012722682866     -3.83416052079343     -3.85558061215419
  H           0.78854491569405     -2.01271054124631     -3.13418905538939
  H           3.63343470968149     -2.65844298047183     -4.10790150042119
  H           3.09390296895883      0.01655702446054     -4.16459137607905
  H           4.23458823671397     -0.62886404217874     -2.96231500122748
  H           1.98588715308430     -4.32297944195255     -4.22761567828080
