18
Coordinates from ORCA-job NEB E -40.702009105770
  C           0.78461075088560     -0.24071352864880     -1.58382843879817
  C          -0.07606976884320      0.77170258149057     -1.13438434489576
  C           1.22745507895026     -1.46428027648383     -1.14328528405328
  H           1.17075234345720     -0.00014456066719     -2.57156399897389
  C          -0.06987821619633      1.89979203895687     -2.00782257552418
  C           0.45775110396926      0.84678887614707      2.36877472755769
  C          -0.51458920964452     -0.00513438296003      2.09377273303372
  C          -1.31133641073453      0.01705753715283      0.82485161936785
  O          -0.86429266490289      0.98878898341734     -0.10003494876320
  Br          1.42810485163413      0.78555823863251      3.98410336726906
  H           0.77797923289417      1.63687718918211      1.70770326611741
  H          -0.80699606678840     -0.77235166141799      2.79425714441532
  H          -2.33858371786756      0.32239987085851      1.06374040368031
  H          -1.35915133748285     -0.97246911843502      0.36045622314698
  Br          2.35469798399675     -2.44540256562794     -2.28670234155239
  Br          1.04803520294418     -2.28346739847591      0.52257336108001
  Br         -1.85352944009838     -1.88475841513211     -2.17530565592478
  N          -0.05495971617289      2.79975659201098     -2.71730525718275
