18
Coordinates from ORCA-job NEB_product E -40.730904203220
  C           1.30008055915263      0.34524516034149      1.11771193548206
  C           2.33335179016536      1.46480307633012      0.87291304197995
  C           1.97458394042228     -1.01655545177001      1.08784189900597
  H           0.58365425033863      0.36377094506079      0.28205057793761
  C           1.68067579273381      2.75181815171825      0.70715188975078
  C           0.52388169762325      0.73177967538683      2.39712403006228
  C          -0.16755761905623     -0.35263256999427      3.14766536929013
  C          -1.48293003174749     -0.40994411758996      3.25848181424253
  O           3.51459738302381      1.29407331238245      0.79167515071914
  Br          1.76846458652323      1.66689522687186      3.66672012840848
  H          -0.19192526505539      1.51117083033621      2.12129752059648
  H           0.46349433548537     -1.06275220423822      3.66285381408340
  H          -2.13027360287390      0.30507324114913      2.77775109373779
  H          -1.96004561353213     -1.18924064831933      3.82470480217134
  Br          2.96582851466454     -1.22339520448424     -0.59919142652679
  Br          3.19732695281244     -1.30601758568394      2.56144948433097
  Br          0.63559618005046     -2.45504660049396      1.06861372588451
  N           1.13509614926933      3.74365476299680      0.54528514884336
