18
Coordinates from ORCA-job NEB_reactant E -40.743598733450
  C           1.68934508472393     -0.13450482508009     -0.26200676632261
  C           1.00967088096162      0.67104758475566      0.58143092033139
  C           2.26577945275316     -1.39697841977934      0.22943748314578
  H           1.82053307555208      0.13505572767959     -1.29706069046737
  C           0.46012925563037      1.89212491917517      0.10165831768042
  C           0.57239829476943      0.99527310973292      5.17808514084645
  C           0.08389077606073      0.47208299945621      4.06764038921160
  C           0.15024519426529      1.16748783269425      2.74523827743235
  O           0.86316512016592      0.30708879945626      1.86487127339315
  Br          0.47645705205137      0.11887120995415      6.83993951015529
  H           1.04113799202075      1.96580806457605      5.23176894890947
  H          -0.36498587332294     -0.51039729167129      4.05538875959483
  H           0.66452292971652      2.13302520675153      2.82827767115210
  H          -0.86355365211591      1.33695630091493      2.35574832737724
  Br          3.17893763534319     -2.36751200030905     -1.18327781999581
  Br          3.55991416821577     -1.06556413648961      1.68852145925526
  Br          0.86795222298844     -2.57297112184408      0.97757656650979
  N           0.02036039022029      2.88050604002673     -0.27333776820935
