20
Coordinates from ORCA-job NEB_reactant E -28.697770667940
  C           1.90065607580030      0.08652984076402      0.14519207420718
  C           1.44342492678079     -0.14077547357078      1.36779583892089
  C           2.02993738760115     -0.97612445925327     -0.89513282785133
  H           2.21546487753482      1.08267816371742     -0.12346488741865
  Br          1.32059973779485      1.35964617663223      2.60008535750915
  C          -0.49768909198650     -3.24030527151746      4.24183435558369
  C          -0.26793678333807     -2.88790111197702      2.98820275255939
  C          -0.12900109733938     -1.47200992764778      2.53106237520424
  O           1.13295652533921     -1.33559309177617      1.87498575845337
  C          -0.65168484692852     -4.64548771941160      4.71185784318502
  H          -0.60068728466171     -2.47908017995265      5.00501232001701
  H          -0.15198055327613     -3.63199145536767      2.21271467094031
  H          -0.18220631560192     -0.78369705795701      3.38394875673452
  H          -0.93091313495645     -1.21745060909022      1.82115736626350
  H           1.64011704876399     -1.92174709452144     -0.52907568282965
  H           3.07767432986043     -1.10823272190726     -1.16298670261996
  H           1.48947147495549     -0.68388134647502     -1.79480178195740
  H          -0.53101413456777     -5.34908257087439      3.89245309829356
  H          -1.63613603044914     -4.78564064778162      5.15734628250938
  H           0.08974688867458     -4.86485344203230      5.47921303229576
