20
Coordinates from ORCA-job NEB_product E -28.720786714420
  C           1.37100987049774     -1.62210309930954      1.57855050260361
  C           1.00388119327569     -0.19660231743615      1.33484612684965
  C           1.21147375654983     -2.40462284601101      0.27677289866229
  H           2.41550359281263     -1.65923567008009      1.90774230582928
  Br          1.64006204868315      0.98846182337914      2.79234684393912
  C           0.49769339378755     -2.14855441051296      2.75355941672876
  C          -0.96476839154019     -2.00223311402485      2.44401292487645
  C          -1.74910328730010     -1.10379370952670      3.00821114681449
  O           0.40912528359940      0.29700058152644      0.44593114996626
  C           0.83816094950087     -3.59960200941896      3.08765337765237
  H           0.73233729713461     -1.53339548585741      3.62908917204069
  H          -1.36360517383402     -2.69570516673071      1.71622200668922
  H          -1.37963525032901     -0.40573905819241      3.74231019716375
  H          -2.79387752977652     -1.02482885495985      2.76166709732685
  H           1.51609877365214     -3.43726820404427      0.41673259289604
  H           1.83687467556801     -1.96521171855926     -0.49760369038041
  H           0.18138254649893     -2.37645651102044     -0.06713679329566
  H           0.53096320403532     -4.27109344173908      2.29023239777019
  H           0.31330043880550     -3.89091711083213      3.99436539750442
  H           1.90632260837847     -3.71609967664976      3.25559492836263
