24
Coordinates from ORCA-job P E -38.390521191690
  C          -1.48691211029640      0.42385705288461     -2.29167888153342
  C          -0.13354064854548     -1.59920171436492     -1.03939305702064
  C          -1.50599927723616     -1.87609979155004     -1.55015312756653
  C          -2.16193326658352     -0.91350089304781     -2.17912454762820
  C          -0.99619486708455      0.81637184717739     -0.89013516117584
  C          -0.07315957600529     -0.25118858227953     -0.26848632690042
  H          -1.93216514024333     -2.85597813040040     -1.40876153296737
  H          -3.15549969842534     -1.04638881661146     -2.57632360692982
  C          -2.39867119128174      1.46848083601387     -2.89923107296884
  H           0.22066246809052     -2.40423102647972     -0.39512527550173
  H          -0.61491746653463      0.33581802430739     -2.95731722032811
  H           0.54443209076471     -1.53419909779675     -1.89641852148282
  H          -1.86786533198024      0.94712141480533     -0.24620049402684
  H          -0.43085516119190     -0.44272870554013      0.74931374893067
  H          -0.45439451898828      1.76265762627215     -0.91226430563467
  N           1.26742399693280      0.28345442043288     -0.10567273427326
  Br         -4.01977991435784      1.73340373060530     -1.84736257472159
  Br         -1.49627895255723      3.19671261546815     -3.06791677952605
  Br         -2.93985554199612      0.92734965206886     -4.70684867711643
  C           2.02755834720151      0.58370199626367     -1.30218161998779
  H           1.80924317991315     -0.32918212153084      0.49360030677245
  H           1.47165751082643      1.28089600262481     -1.92687687241962
  H           2.29217735569191     -0.29449110250493     -1.90907920368064
  H           2.95166771388700      1.07187476318214     -0.99691246231248
