24
Coordinates from ORCA-job R E -38.310460935000
  C          -1.56992836885960     -0.24130861420951     -2.88179458285159
  C          -0.03835382885619     -2.65181083110681     -1.94869911303923
  C          -1.31072254137656     -2.37884330605056     -1.68020715612035
  C          -1.98329547648415     -1.12979452766462     -1.97835444019920
  C          -0.68010324485034      2.02735371715057      0.11544439726388
  C          -0.31004690363399      0.75189261725464      0.11197465799124
  H          -1.92265230540733     -3.11412930937510     -1.17456452295679
  H          -2.89199245261129     -0.94540677492236     -1.41945148766782
  C          -2.25389974574871      1.01559676820582     -3.22239888662133
  H           0.39634282094974     -3.60239064748586     -1.69230433540593
  H          -0.68707215693820     -0.42647690202930     -3.47921303760690
  H           0.61619209894769     -1.93362780118244     -2.41136524052962
  H          -1.61942136838898      2.31976317516349      0.54709441016650
  H          -0.94997165654366     -0.00352027738241      0.55182981746821
  H          -0.07641210097855      2.81285108590454     -0.30073823920012
  N           0.81838049786492      0.21338353333714     -0.48102295865305
  Br         -3.61106867433333      1.58266542231699     -1.96457655271181
  Br         -0.96310463529463      2.47382263458820     -3.40367403689154
  Br         -3.13991932022647      0.80977949767892     -5.00281508496209
  C           1.88192525668886      1.08918561837124     -0.91801243714822
  H           1.14849845190048     -0.62590870365306     -0.02616977597726
  H           2.30578283186608      1.68641421812784     -0.10122025684883
  H           1.49640581334365      1.76999399356898     -1.67624401789586
  H           2.67330700897055      0.48771541339366     -1.36179711960226
