24
Coordinates from ORCA-job TS E -38.295452401330
  C          -1.00810073368369      0.16092145543901     -0.97540440645739
  C           0.29775880707643     -2.13055033181524      0.12089572113823
  C          -1.04060711320507     -2.08824641715410     -0.07993223274189
  C          -1.69715533888871     -0.99791278011761     -0.67685978190971
  C          -0.36877010727131      0.81282121859455      0.94487697814731
  C           0.56284892974576     -0.05007064482696      1.47505035575624
  H          -1.66390842989295     -2.85576469471077      0.35755196811726
  H          -2.77788984870487     -0.98064194940577     -0.65449563526179
  C          -1.73484029432719      1.29900394216370     -1.58797269185001
  H           0.73932302591267     -2.93437434206771      0.68643733525877
  H           0.01397804971132      0.08975755152827     -1.32007257637444
  H           0.98307784879259     -1.53738521656427     -0.45527001178327
  H          -1.35375480199850      0.79484872206430      1.37809409410510
  H           0.25941000105702     -0.79314182445499      2.19496026006903
  H          -0.03731540852611      1.76898085835664      0.57925385186918
  N           1.91662592470779      0.10897689925803      1.37408846492913
  Br         -3.29457444225855      1.86123603712006     -0.56417657253809
  Br         -0.58994244844460      2.86083511558121     -1.84265740656417
  Br         -2.38725044606980      0.80439009465911     -3.41593932827358
  C           2.54587923676366      0.94816134318082      0.38515196701973
  H           2.47282018248386     -0.67452562074485      1.67809117345350
  H           2.08309738450877      1.93380704295427      0.38444089187923
  H           2.48245418913004      0.53518530319415     -0.62849120174402
  H           3.59683583338143      1.06368823776818      0.64237878375565
