20
Coordinates from ORCA-job NEB_product E -42.023688957890
  C           2.32433022684839      1.58546077648989      1.12941365525594
  C           2.95813401770697      0.27837129123358      1.57943647630383
  C           0.98498617069588      1.24473064208299      0.45381682816249
  H           2.97684700771623      2.03188014377211      0.37001494793351
  H           3.22133600944103     -0.38325167883473      0.73686560278646
  C           2.18854796405741      2.53577607913344      2.33235908815478
  C           3.55210616432145      3.03074142296572      2.74583702031283
  C           4.09935927126480      2.77581902404865      3.91710308931467
  O           3.13625855135670     -0.04013643152721      2.71734670963302
  C           1.31387277674486      3.74604820641616      2.02342413166933
  H           1.72054277518182      2.00147263472496      3.16594155198385
  H           4.06427094937797      3.62677303264958      2.00231633692485
  H           3.59881127183375      2.17880619235224      4.65989092571811
  H           5.07776976851988      3.14322649039624      4.17128843225902
  F           1.19882016253530      0.33556920351076     -0.54804525097671
  H           0.53273339516700      2.12115999068746     -0.01843321751744
  H           0.28349146906265      0.79011427204944      1.16068659622168
  F           1.62587714509020      4.32535883017712      0.85339032214490
  F           0.00507347554348      3.44069770171665      1.95636916015016
  F           1.42193142753423      4.69438217595496      2.96087759356473
