20
Coordinates from ORCA-job NEB_reactant E -42.014967217060
  C           2.43618277360186     -0.15321359585545      0.23018044234312
  C           2.97480426825877      0.66450450587981      1.12468435336354
  C           1.14989669428892     -0.88346391075598      0.44029416252698
  H           2.94007917043024     -0.33152467427505     -0.70494829604413
  H           3.91039201840460      1.17637901392767      0.92757564481688
  C           2.45792085417210      4.35617285537449      3.35174367507898
  C           2.64280174719334      3.29259740015736      2.58779677336339
  C           2.97856381331150      1.92724614210276      3.10992026688737
  O           2.40270315799315      0.90225676879030      2.33891298495482
  C           2.15338604642247      5.71163151131551      2.79701727551804
  H           2.52463746399957      4.33331000072141      4.42875409159532
  H           2.55626973314120      3.36854070454788      1.51117749455237
  H           2.59479682898237      1.79364217511555      4.12399199677689
  H           4.07533535846554      1.82082720755186      3.13478650454139
  F           1.24517219900883     -2.17196000431131     -0.03599198413190
  H           0.32738473450609     -0.41467851601914     -0.11570986972519
  H           0.89698869217003     -0.94637400446014      1.50208640995226
  F           2.05246199207427      5.73190781480773      1.46188226660060
  F           0.99873693867407      6.20243642783396      3.27824178043915
  F           3.10388551490109      6.60766217755078      3.12180402659011
