26
Coordinates from ORCA-job NEB E -44.092273476710
  C           0.38262858506261      0.61549244625409     -0.44463122293216
  C          -0.38652704651966      0.55395634158511      0.73138770799289
  C           0.08122254612015      1.67001467755326     -1.48965919271332
  H           1.45253711140822      0.53094988194805     -0.26976537102153
  C           0.24659784630176      0.18059303237810      2.04709823310516
  C          -0.18080988387932     -0.99673941741809     -1.33102793001407
  C          -1.37023774647714     -1.46745103327956     -0.74828102484254
  C          -2.32080662393802     -0.41661568969170     -0.45814636732613
  O          -1.68776017588620      0.39991566559582      0.67152457561717
  C           0.99393350143483     -1.93512570149114     -1.29871763289639
  H          -0.27119391854462     -0.53453320013657     -2.30837918054095
  H          -1.28274791238692     -2.24216326045800      0.00418642998039
  H          -3.25703014200389     -0.73742194550188     -0.01083639148839
  H          -2.49854110784041      0.27079771481181     -1.28600586899728
  H          -0.97919019285058      1.73736839914418     -1.71517366159545
  H           0.63370789846243      1.47797771312734     -2.40690877952019
  H           0.40291144744280      2.63752242517437     -1.10439967651590
  C           1.22122841397459      1.24287376493495      2.55035253704300
  H           0.77690358550289     -0.76927861596266      1.92449348669003
  H          -0.55143896769017      0.03305411066762      2.77606101802930
  H           2.03905645526134      1.38605857160573      1.84905697913072
  H           1.63981793492490      0.93861746649235      3.50600783150956
  H           0.71060047102697      2.19346397992176      2.68420957268131
  F           2.09110855982103     -1.40110370254480     -1.86569573300790
  F           1.35210809698246     -2.28332994665666     -0.05065675547799
  F           0.76192126428996     -3.08489367805349     -1.95609358288933
