26
Coordinates from ORCA-job NEB_reactant E -44.126822698620
  C           1.02339865947165     -0.68077351620205      0.21426209816065
  C           2.13018614411104     -1.40425986521337      0.06627822321923
  C           0.32909056472121      0.05553540603292     -0.88336990516117
  H           0.59273842671006     -0.59250735632856      1.19997199695326
  C           2.80413220479471     -2.09563735354041      1.22160324528250
  C           3.05423593934010     -5.05352118560623     -1.35854113895012
  C           2.58676997768157     -3.82994697658541     -1.54700765545453
  C           3.43486241227000     -2.59494815636199     -1.55888905466864
  O           2.73096124516031     -1.43997957155969     -1.18169316320315
  C           2.18521580936252     -6.26875915512214     -1.37118250920764
  H           4.09852127533996     -5.27053590297698     -1.18988075154486
  H           1.52960801818680     -3.65963112083510     -1.70549167077795
  H           3.74345483239752     -2.39433048051641     -2.59278819351819
  H           4.34318341214398     -2.74312563036152     -0.95984936666961
  H           0.79426140384425     -0.16403302521466     -1.83952550647285
  H           0.38036696641599      1.13005427287738     -0.70895114053991
  H          -0.72327446804088     -0.22490169822262     -0.91879832339787
  C           4.06572919075464     -1.34364751814892      1.65302033584924
  H           3.05607757136804     -3.12662432287892      0.96248849069181
  H           2.10352380999977     -2.12966466129492      2.05597816221439
  H           4.77035451148526     -1.25335886245784      0.82926252639944
  H           4.55520204247364     -1.86490247163124      2.47248224593772
  H           3.80523846543445     -0.34116060590782      1.98333552411668
  F           0.89175212956913     -6.00214435118840     -1.58911504307249
  F           2.56162658881398     -7.14564318489838     -2.32074586147886
  F           2.24648286619025     -6.93905270585672     -0.20455356470705
