22
Coordinates from ORCA-job NEB E -33.679218233950
  C          -0.59883177782506     -0.47633836868526     -1.17375590193306
  C          -1.31472186783961      0.71007755760904     -1.34974147017138
  C          -1.28097467938452     -1.63686565552698     -0.76083415690751
  H           0.23443558817681     -0.63977410847628     -1.84434689272677
  O          -0.77928569992286      1.60743202410526     -2.21308031444344
  C           0.26553248858752     -0.05639862378988      0.75537960167571
  C          -0.40444594741598      1.09061638376098      1.14581231207996
  C          -1.80434024093057      1.08294373069773      1.15856947565862
  O          -2.24251037630961      1.09614917769727     -0.57773437755749
  C           1.74969230634800     -0.04221809497899      0.51871792466685
  H          -0.12856996157822     -0.99922245223604      1.11377456561986
  H           0.09646848140239      2.04343441761267      1.01808223314218
  H          -2.34035698104098      1.97583966155520      1.44335191067780
  H          -2.30442014358896      0.15716352337926      1.41061620116666
  N          -1.81729463551101     -2.59087142417178     -0.41740716834746
  H          -1.27501618517958      2.43700653994489     -2.15982155891593
  C           2.32342832364668     -1.42899273204839      0.25462265985760
  H           2.22561164332683      0.37370115225844      1.41279543098343
  H           1.98843852001687      0.63066174632607     -0.30864391209038
  H           2.13598550455185     -2.08438483019218      1.10204706771194
  H           3.39782739434642     -1.37006132506173      0.09777195680842
  H           1.87334824612359     -1.87989829977928     -0.62617558695562
