24
Coordinates from ORCA-job NEB E -35.887548559250
  C          -0.51719416882450      0.47358871365904      1.08093843385477
  C          -0.93812272605692     -0.60616088871134      1.84398635183221
  O          -1.48270787296443      1.23165860198122      0.48813546812706
  H           0.38599311033247      0.99635994004252      1.37948965757781
  Br          0.56782223301139     -1.35746249824908      2.90969185511821
  C           0.15638211731334     -0.70994659634031     -0.57689439183103
  C          -0.37879514782068     -1.96959958496322     -0.35841559836461
  C          -1.73909453832554     -2.11365580723561     -0.06912205522761
  O          -1.86250068983209     -1.38989202704217      1.57093686864358
  C           1.65181630946419     -0.55464882477731     -0.66484527932824
  H          -0.42827728999699     -0.02480281705679     -1.17807935434591
  H           0.29286389363071     -2.74960976937420     -0.01944826380513
  H          -2.13373881105414     -3.09466801296611      0.14682523986686
  H          -2.43957918290360     -1.43164683823181     -0.53234424570905
  C          -1.08353099821141      2.50706263961136      0.04183978178180
  H          -0.40341764342898      2.43657026418468     -0.81350491198030
  H          -0.59777211319041      3.07524975602141      0.84119328328951
  H          -1.99437920444664      3.01856226516207     -0.26333208887249
  C           2.11299154554408      0.83082798314283     -1.09981457446294
  H           2.01864075217878     -1.28809473013205     -1.38964933846970
  H           2.10221213479854     -0.81165972220794      0.29724643612379
  H           1.65654962722810      1.10793847585572     -2.04852239088152
  H           3.19251862722751      0.83914586350696     -1.22848994657511
  H           1.86132003632722      1.58488361412012     -0.35782093636196
