24
Coordinates from ORCA-job NEB_product E -35.931174279280
  C           2.58217734884727     -0.38344184173786     -1.01730631431461
  C           2.94266232782076     -1.17351762014066      0.21410399952810
  O           1.21544464287356     -0.06760593294039     -0.85559350695133
  H           3.17884164401401      0.54039035979551     -1.06379718593599
  Br          4.56221114494690     -0.48624135578132      1.10473352863788
  C           2.85593994903310     -1.23412854931145     -2.29140822279252
  C           1.87648533937969     -2.36891072256011     -2.36532760249046
  C           1.05296432792689     -2.56145112892785     -3.37790105762809
  O           2.39911732144367     -2.10177736463225      0.68889958389544
  C           4.29706976633621     -1.76454347910910     -2.35028380872144
  H           2.70188108939200     -0.57387078302465     -3.15233110995323
  H           1.88032503290399     -3.04760373315820     -1.52468065684543
  H           0.37069677137617     -3.39301157989977     -3.40415213495486
  H           1.02838604798997     -1.89962684130171     -4.22950577828853
  C           0.72461477098259      0.89850270202250     -1.75338375646129
  H           0.65110740170492      0.50814490272303     -2.77257097106423
  H           1.35452175323669      1.79606811177574     -1.75193946171235
  H          -0.27075048801136      1.15339768556696     -1.39583443176429
  C           5.33823299190856     -0.67019996116129     -2.55646973222402
  H           4.35032397803773     -2.46331610354610     -3.18887515625798
  H           4.52503932137022     -2.33021040145157     -1.44420286518947
  H           5.10362099666261     -0.08357753863142     -3.44229182987822
  H           6.31915167052201     -1.11765886967281     -2.69419235466117
  H           5.39603484930183     -0.00240995489521     -1.70138917397189
