17
Coordinates from ORCA-job NEB E -40.143740803870
  C          -1.09069604538435      0.81355194688799      0.60914650701750
  C          -0.82539401546823      2.18965257015743      0.40105366742696
  I          -1.54386378800138      0.30592962490065      2.63936493021464
  H          -1.83329867356702      0.35571139372200     -0.03401962548289
  F          -0.89429777155126      3.11217391481958      1.34468416870253
  C           0.37693093677836     -1.11860212474589     -0.58337337515232
  C           0.40173060768724      0.20637939148206     -0.10303763882528
  C           0.44600506657080      1.28600423552094     -1.19047557281657
  O          -0.00962685526319      2.49634574508002     -0.59122155570042
  C           0.72670277134975     -2.27292590781017      0.15786952282631
  H          -0.15531073296786     -1.32035161529783     -1.50460517716571
  H           1.13238057475014      0.37706281417441      0.68915129311967
  H          -0.21813968328750      1.01199245765510     -2.01746959959292
  H           1.44992253177345      1.47278848650240     -1.57423073646096
  Br          1.41569266066886     -3.71384407592690     -0.92750558486573
  Br          1.81838779327971     -2.03158339320519      1.71081612751662
  Br         -1.19712537736753     -3.17028546391661      0.97385264923856
