17
Coordinates from ORCA-job NEB_reactant E -40.187421769000
  C           0.95081482678126     -0.54708302514217      0.11064583030197
  C           2.02998481667987     -0.73201944114918     -0.63397883641608
  I          -0.91214822928985     -1.16425922922265     -0.59423247813634
  H           0.98187326141517     -0.05920208535282      1.06482347246381
  F           3.23772602304586     -0.35224980290848     -0.16223088820660
  C           3.77602515725732     -4.25594578977599     -2.27851459591275
  C           3.54335276997005     -3.11624357913057     -1.64846382172752
  C           3.23032799269531     -1.83328113455105     -2.35470442850775
  O           2.03298561809049     -1.24764085854996     -1.86243533845576
  C           4.10963732994218     -5.55015319574374     -1.64513936091413
  H           3.75260122034889     -4.30588657997114     -3.36069519033369
  H           3.56075978049948     -3.05516945990798     -0.56753936657508
  H           3.04455796070409     -1.99571476563400     -3.41761165619101
  H           4.07185897750757     -1.13697391724154     -2.23502480509673
  Br          2.83248899288645     -6.92323184453886     -2.25705086866629
  Br          5.91757575389234     -6.10176815920947     -2.22848359508469
  Br          4.09047774757353     -5.53897713197039      0.29383592745865
