17
Coordinates from ORCA-job NEB_product E -40.205402891450
  C           2.55826157308166     -2.22040159981798     -0.31043832090952
  C           1.32428529524743     -2.80859391586346      0.30776846116148
  I           1.93027064487217     -0.16820125237759     -0.66804417629108
  H           3.37614907116163     -2.15213431668615      0.40928630032039
  F           1.33216729490355     -2.64740886642028      1.64933505181905
  C           2.95432865077247     -2.93896087534567     -1.60174674248613
  C           3.68379916379676     -2.04930945119048     -2.57175144172501
  C           3.37286031082020     -1.96834351193015     -3.85187774366817
  O           0.40155796123041     -3.30333785838094     -0.23598932611106
  C           3.83146849021481     -4.15139187139883     -1.27884133979806
  H           2.03609490336287     -3.31500900665985     -2.07580208466085
  H           4.50660053738427     -1.48112780040274     -2.15945390348491
  H           2.55983869681288     -2.52990496805120     -4.28224623937160
  H           3.92159884850071     -1.32865811248450     -4.51963374178142
  Br          4.14535003920505     -5.19158862908632     -2.89639679359437
  Br          5.56943694102871     -3.61414423599314     -0.56362806926051
  Br          2.99693157760441     -5.34138372791069      0.04786010984176
