28
Coordinates from ORCA-job NEB_product E -41.916277623880
  C           2.77885554451229     -1.33296575039222      0.32841169855925
  C           1.47161771932270     -1.00618568229764      1.05357751222584
  C           2.52982059800987     -1.36654141000141     -1.18389538304760
  H           3.52535738844581     -0.56599988557231      0.56017201422087
  C           1.53548022264726      0.16463222847344      2.00531638567649
  C           3.29734723642704     -2.69101006841808      0.87793193204090
  C           2.51518532553562     -3.86767444559267      0.39221996737470
  C           1.64192874807643     -4.51201755381836      1.14185899483780
  O           0.47124558590184     -1.64755031865834      0.86953929864245
  N           4.71709499880552     -2.77470321427467      0.45235720692162
  H           3.30838174656178     -2.64748377241919      1.97181570200280
  H           2.71672805530895     -4.16631947271520     -0.62601256453584
  H           1.43235502517983     -4.21893843523243      2.15717382972719
  H           1.08325667667600     -5.34816396404596      0.76126037216452
  C           2.29032736497342      0.03574712993377     -1.73079835081598
  H           1.65397186623801     -1.98801025048208     -1.37791004683480
  H           3.38939614146941     -1.81041161504608     -1.69047268375010
  H           1.40502470197569      0.47866361379731     -1.27896453977162
  H           2.14030284728335     -0.00455411788597     -2.80631260031925
  H           3.14373242879883      0.68092902762018     -1.53031497069205
  C           2.43544426475006     -0.13017424828324      3.20728333574585
  H           0.52333115447222      0.38281824716687      2.34996419304953
  H           1.92028425622993      1.03342249784689      1.46692229324622
  H           2.07434070212986     -1.00380023345360      3.74516519414058
  H           2.42226558656907      0.71694972950553      3.88830109586442
  H           3.46523314700732     -0.30359316443165      2.90465325324601
  O           4.96128253039469     -3.20918901306012     -0.64535662569217
  O           5.53380813629717     -2.34487585826275      1.23311348577235
