20
Coordinates from ORCA-job NEB E -48.281871105120
  C           1.06435802343850      0.04699700041267     -0.51680103679181
  C           0.48925938528207      0.95977144395468     -1.42135699544436
  C           1.12092096485453     -1.39074837307212     -0.95627407562107
  H           2.01406997805238      0.34922554127207     -0.07778900785345
  Cl          1.09524921455660      2.61139503602309     -1.32451613918320
  C          -0.21244952809244      0.40437036894539      0.93669332754174
  C          -1.46941493338447      0.22039045235852      0.35623401021637
  C          -1.82981139893367      1.05467401515485     -0.74041200780221
  O          -0.68759280752834      0.79724655304004     -1.87441930283445
  C           0.12906147329528     -0.41030593295286      2.16247136686887
  H           0.14552668649104      1.42449739219774      1.05796343913776
  H          -1.97913689566311     -0.72091928656455      0.49119020502233
  H          -1.70019396610575      2.12557348178288     -0.60048871168327
  H          -2.74629520584761      0.79985526018337     -1.25778580669815
  Br         -0.55492328376392     -2.20907687207444     -1.44595671578042
  Br          2.24719851176258     -1.42216244193838     -2.60094020976344
  Br          2.03695974779435     -2.54808460520759      0.30129906959787
  F          -0.24414430199356     -1.70110075977999      2.04540432910331
  F           1.45841512125006     -0.39244806365101      2.41254044658553
  H          -0.37705678546452      0.00084978991564      3.05294381538205
