20
Coordinates from ORCA-job NEB_reactant E -48.322429833260
  C           1.60756827692657     -0.09207501146914     -0.08296418122974
  C           0.77086217427961      0.59758152272153      0.70899425928373
  C           2.20839110742228     -1.34186633722605      0.41148847830075
  H           1.84901948566163      0.24956453467606     -1.07402817033859
  Cl          0.05487479842423      2.07125122499787      0.17259023415855
  C          -0.15647160721824      0.44974854740788      5.25818389726836
  C          -0.48575815162913      0.03458198837568      4.04791271495499
  C          -0.34310836303872      0.87071316707579      2.81677666001176
  O           0.48836390713413      0.13994268747386      1.92081117373514
  C          -0.30411075438352     -0.38990929625196      6.49112415321522
  H           0.22447166090583      1.44196410252848      5.45183173956777
  H          -0.85905414786571     -0.96673231880346      3.88546017507151
  H           0.11413174549852      1.84026480929408      3.04287757902323
  H          -1.32570785764669      1.03181465734954      2.35477669021335
  Br          3.38554189122790     -2.12903467072454     -0.90725085353142
  Br          3.25683973450178     -1.04344305427969      2.05823646698284
  Br          0.83731591975537     -2.68022536826656      0.87981845157034
  F          -0.94001486552774      0.31037538835099      7.46628781060771
  F          -1.04496349856902     -1.49838631241836      6.27228859181023
  H           0.66960854414093     -0.71043026081202      6.90178412932428
