20
Coordinates from ORCA-job NEB_product E -48.325820630680
  C           1.40940915190395      0.10095824232514      2.23879151861701
  C           0.68730229919310      0.92434704777475      1.18269263898132
  C           1.57895179359754     -1.32367503764729      1.72203107354612
  H           2.41781162775184      0.51417022951388      2.37241867003121
  Cl          1.14753592507988      2.61874376044615      1.25567706583039
  C           0.62629047394777      0.35652425358521      3.56279224218757
  C          -0.82434155329177     -0.05697633335945      3.52122242912682
  C          -1.79086947412516      0.74357270892504      3.11401078231236
  O          -0.11684771813242      0.54193302100704      0.40602833121197
  C           1.30905322857288     -0.21531119867576      4.81529701364580
  H           0.66984145661637      1.44560765572004      3.69639909809975
  H          -1.04943252695799     -1.04977370106155      3.88127310729367
  H          -1.60516959676489      1.74826817425921      2.77049794581827
  H          -2.81519606988753      0.41759370028595      3.10440261981865
  Br          2.47970826254166     -1.20680751371480     -0.03075508401382
  Br          2.77905080728841     -2.36534460599687      2.84992612259851
  Br         -0.05541653976544     -2.31263617148218      1.46870521342414
  F           0.90518409688875      0.50119357217387      5.88925797220949
  F           0.94737777564818     -1.49105360674504      5.06106231061475
  H           2.40955657989487     -0.17213419733334      4.78406892864604
