22
Coordinates from ORCA-job NEB E -56.658181563610
  C           0.47183850470890      0.82034291962474      0.48171951458909
  C          -0.71857168506512      0.70775496956980      1.21331972950506
  C           0.49754280087760      1.84257268006375     -0.64027142610664
  H           1.39180090477820      0.85907837184923      1.06449512350902
  N          -0.60456801049341      0.18642073142210      2.57105361691148
  C           0.46614443285771     -0.93896635558958     -0.35158943874583
  C          -0.79223678213274     -0.96849020973196     -0.94770799606411
  C          -1.96842984277257     -0.82661420874096     -0.11647214787129
  O          -1.86372689050499      0.51183551523514      0.62476877261005
  C           1.69238163881323     -1.08688525492821     -1.23141497870920
  H           0.61891754447991     -1.46447187367982      0.58733294354100
  H          -0.87498933243352     -0.74713524525970     -2.00176755424088
  H          -2.05483402558992     -1.54988759326877      0.69795718201215
  H          -2.89924833111718     -0.74001206229772     -0.66848943307837
  F           1.68041891671114      1.91081300564949     -1.24467279163880
  F          -0.42520475180602      1.65532512562585     -1.58572979683142
  F           0.26857070632370      3.05964029781112     -0.11993150234634
  O          -1.57921340198874     -0.37590801173421      3.01724502744363
  O           0.46073666264743      0.32991692105964      3.13450161559413
  F           1.54698306379428     -0.46488433291258     -2.41710807456796
  F           2.78477272354004     -0.56868215694637     -0.63059694089525
  H           1.90091515437205     -2.15176323282098     -1.43664144461950
