22
Coordinates from ORCA-job NEB_product E -56.685181772980
  C           2.75036088770243     -1.44423543426293     -0.58107145749598
  C           1.53701333812247     -1.22300758900072      0.28142424400438
  C           2.97211171531886     -0.19374707721251     -1.45003127345569
  H           3.64430350665473     -1.55128488207472      0.04709382951201
  N           1.54389193976421     -2.12250232970558      1.55239381879424
  C           2.53007877013508     -2.79159459259539     -1.33603815479716
  C           1.18032175889361     -2.86437486944268     -2.00286963784846
  C           0.22873630270609     -3.68646756689701     -1.60387186751176
  O           0.60051092039225     -0.52667701296686      0.11861204330961
  C           3.63901510449636     -3.07879022346540     -2.35829136758201
  H           2.61203233048528     -3.57964552572961     -0.57804852880729
  H           1.03041021863557     -2.19794911401451     -2.83903970018172
  H           0.36143775810272     -4.36117078100918     -0.77290509984460
  H          -0.72636535725388     -3.71853886562086     -2.09639857967603
  F           4.18469236807576     -0.17218898672305     -1.99697723079571
  F           2.07974235130253     -0.04563199926848     -2.42485411985166
  F           2.89490409742098      0.90322628531669     -0.67729738225865
  O           0.58613434221628     -2.01115363420001      2.25933306533042
  O           2.49333101089847     -2.85291082365551      1.69762981141311
  F           3.57923843126742     -2.25568562720793     -3.42294069377598
  F           4.85797976056319     -2.91780217935433     -1.79767813333785
  H           3.56841844409959     -4.11226717090942     -2.73317358514322
