22
Coordinates from ORCA-job NEB E -46.353241187670
  C           0.52086135607451      0.33304932349130      0.91444032299345
  C          -0.43974769788936     -0.46062004640361      1.80152848076803
  O           0.23921355254942      1.68756505598304      0.77527837214873
  H           1.48579757344125      0.31586249144653      1.45032514880053
  C          -0.05830135303632     -1.86328135120262      1.92305536998549
  C           0.74125150496112     -0.43318913103216     -0.43685067696939
  C          -0.49015416094256     -0.44925098126161     -1.30462213806410
  C          -1.43955196014844     -1.36061592224215     -1.19063320157399
  O          -1.38097653126382     -0.01173697346105      2.39561780154072
  C           1.96779559163955      0.13249360303826     -1.17857010153383
  H           1.00358177399340     -1.46595108074360     -0.17713244566447
  H          -0.55966281337960      0.32815693556228     -2.05205008583434
  H          -1.39267051827104     -2.15641376551514     -0.46488425500288
  H          -2.30990386782583     -1.34136131174535     -1.82192746851654
  C          -1.08126494563353      2.10433492800707      0.46030398775114
  H          -0.97705310792045      3.14589586578905      0.16211406777346
  H          -1.73857830047299      2.03940853066787      1.32889679053121
  H          -1.50952264313746      1.52861234919323     -0.36184437875279
  N           0.24476407491091     -2.95873879492947      2.05724750336660
  F           2.48814367371833      1.23245607078580     -0.62993942554188
  F           2.96111600565727     -0.77605887565279     -1.19035594302573
  F           1.72486279297561      0.42938308022515     -2.45999772517941
