22
Coordinates from ORCA-job NEB_product E -46.364654430590
  C           2.34131038466057     -0.41445026918566     -1.47542958433369
  C           1.44146586745762     -1.56849875722994     -1.01532522517794
  O           1.91516503865375      0.80249921693532     -0.91903654588024
  H           3.36307068469721     -0.66677881693069     -1.14458418741236
  C           0.80092792288326     -1.28866951997706      0.25744254077415
  C           2.32029529433527     -0.36110655320229     -3.02215861663217
  C           0.98758714898193      0.12067948529993     -3.52670358535692
  C           0.23024545286909     -0.57926871471967     -4.34791248516771
  O           1.29285302226325     -2.59651948944679     -1.61798166564879
  C           3.42561552520308      0.55956503833636     -3.52737395358669
  H           2.53831719793000     -1.36346532491203     -3.40668916293246
  H           0.68749936573700      1.08852858817400     -3.15215839653787
  H           0.52769213309957     -1.54781406912865     -4.71443131642959
  H          -0.72144401919613     -0.20856872271447     -4.68523560840409
  C           2.78068149013442      1.37862212813793      0.03630960287191
  H           3.77289693984378      1.56510558758361     -0.38653715379170
  H           2.87171672822018      0.74669574281805      0.92587249754794
  H           2.32187280697738      2.32503509175018      0.31164010348845
  N           0.33205092801078     -1.07975045085366      1.27963521296200
  F           3.24930410302050      1.84279871122153     -3.20401563966967
  F           4.63162939152442      0.21040620072752     -3.03581284265234
  F           3.53524659269306      0.50745489731650     -4.86061398803021
