22
Coordinates from ORCA-job NEB_reactant E -46.372184566960
  C           1.25269409125834      0.03299401637195     -0.46411075308988
  C           1.11746398511532     -1.30371896026629     -0.55299635503754
  O           1.08447438301568      0.91225686199242     -1.48212436596919
  H           1.50141013461549      0.45056441586982      0.50549112386303
  C           1.26963331425121     -2.04047737616005      0.64917279310861
  C           2.72226847187683     -0.04884688312803     -3.89265025143482
  C           2.38566217795102     -1.12522138936150     -3.20227046087821
  C           0.97160465366216     -1.52791913844192     -2.91830841947540
  O           0.82877573533568     -2.09419224106156     -1.63591879209321
  C           4.14091956217338      0.35575509043399     -4.12844234964046
  H           1.99759106669761      0.63259473366965     -4.31098078314599
  H           3.14338990535992     -1.77785716727732     -2.78672558729493
  H           0.68241501081346     -2.33600033854315     -3.60001715336121
  H           0.29248407043011     -0.67987873566359     -3.05733745453039
  C           1.59910589306865      2.20884795717398     -1.26255956858475
  H           1.20435460150089      2.83425222045939     -2.06081687249027
  H           2.69225096817947      2.20848590415827     -1.30920201084701
  H           1.27714981083391      2.60382937825355     -0.29499846667676
  N           1.40314353077063     -2.62373585684855      1.62672345401900
  F           5.03356355805932     -0.57516358425311     -3.77198248226210
  F           4.37917208064926      0.65046768909861     -5.41631040303789
  F           4.45507299438163      1.46796340352342     -3.42863484114065
