26
Coordinates from ORCA-job NEB_reactant E -43.570369119600
  C           1.11437945349169      0.18029643247506     -0.04133965800979
  C           1.82442739040362      0.72417340384110     -1.02715282636635
  C           0.68281476209455      0.88902023634768      1.19929528652917
  H           0.79900550456819     -0.84719842117671     -0.14380236928608
  C           2.17810433322982     -0.05785792833936     -2.26813388563175
  C           2.18085617791924      3.23442926934120     -3.50209123964627
  C           3.32197604745202      2.95083886421517     -2.89344988255679
  C           3.39165625112975      2.48619529620126     -1.46648219109860
  O           2.16581316540279      2.06233434112875     -0.92831981908463
  C           2.03340086126064      3.71777775648623     -4.89507878906548
  H           1.24411771214682      3.12031718241762     -2.97295789990363
  H           4.27470206664640      3.06942589361029     -3.38837403224823
  H           3.70034102577050      3.34219831722181     -0.85053823898458
  H           4.16449149989086      1.71273497064765     -1.36299132587594
  H           1.12003688507752      1.88205026882306      1.23757385923248
  H           0.98552466320671      0.32545488477567      2.08142488627758
  H          -0.40275056916648      0.98357879609722      1.22251568043051
  C           0.96475621482134     -0.21254120859302     -3.18750261800129
  H           2.53018846276010     -1.04867891061112     -1.97341687344884
  H           2.97643944877865      0.43251589856765     -2.82527634370178
  H           0.16191998706085     -0.73288578303583     -2.67229699951590
  H           1.23648855304319     -0.77994146222061     -4.07458912127196
  H           0.59694212965951      0.75978190178890     -3.50319472416504
  Cl          1.01914870412578      2.57361498760778     -5.82790465386238
  Cl          1.20182065259249      5.30386423077461     -4.88845957505033
  Cl          3.57009861663345      3.90650078160794     -5.75205664569413
