26
Coordinates from ORCA-job NEB_product E -43.590781102480
  C           2.23374455388143      1.29275380109837     -1.83431912370118
  C           0.91729814564813      0.79665165563791     -2.43762540064533
  C           2.09595629872786      1.11978227609569     -0.31721805084829
  H           3.07172428345655      0.69090988567322     -2.19264253153746
  C           0.97747972406905     -0.59497509335711     -3.01920366644557
  C           2.45674340494910      2.77538499789514     -2.19620293062946
  C           3.43847276289861      3.44698783201255     -1.27763119374219
  C           3.13487715030929      4.47979818667387     -0.51571849830979
  O          -0.08816255078542      1.45510347241671     -2.37577524021694
  C           2.94706722760345      2.92455765366180     -3.63648127838499
  H           1.48661938185717      3.28222850050240     -2.12791296318806
  H           4.43581125727857      3.03018801697733     -1.27994060161975
  H           2.14669830037493      4.90896167292939     -0.50713849926505
  H           3.86162634785799      4.93843726435889      0.13203661352106
  H           1.27585017502903      1.73037688491614      0.05231382484050
  H           3.00989482921880      1.41716170529513      0.18913161244205
  H           1.88836681592717      0.07943593586366     -0.07726400621443
  C          -0.37337814099353     -1.06297855123910     -3.54153399381736
  H           1.34528921974231     -1.26771008460709     -2.23968296944576
  H           1.71953386219678     -0.59511286041508     -3.82107277406695
  H          -1.10868786878217     -1.05587897724684     -2.74112394484245
  H          -0.29950725709823     -2.06934533714165     -3.94512227900767
  H          -0.72123196489792     -0.39392625407709     -4.32419167057976
  Cl          1.80349808374264      2.22319635316548     -4.80286285071475
  Cl          3.14216312260077      4.65019734745939     -4.03174259128850
  Cl          4.52055283518762      2.12961371545088     -3.88017499229191
