17
Coordinates from ORCA-job NEB E -41.195532279670
  C          -0.66583064345221     -1.34099565962203     -0.24354918399162
  C           0.01475903226585     -1.70526221770581      0.92195559528358
  Br          0.13498681866359     -1.91147188256987     -1.87655051390424
  H          -1.74276017757784     -1.45056231319465     -0.27688897420045
  Br         -1.10570009143665     -1.63700333296740      2.54147282662621
  C          -0.33471142770954      0.61189763652806     -0.11366982769703
  C           1.05861207914387      0.65974605431407     -0.00267379640772
  C           1.66350337386593      0.10008437440866      1.14403810578991
  O           1.24685621147487     -1.53769784239150      1.08181897726387
  C          -1.01526259923723      1.31926925463419     -1.25674130573862
  H          -0.91525910343128      0.73870720627749      0.79833418629029
  H           1.64595021227065      0.76050481221514     -0.90328654995917
  H           1.22068466135136      0.32944191447589      2.10921141146839
  H           2.74317291492643      0.04448678900294      1.16345872129268
  Cl         -1.16954189057677      3.04311569597969     -0.76429499518352
  Cl         -0.11901282835609      1.27395665020994     -2.78066843502753
  Cl         -2.66044654218494      0.70178286040519     -1.54196624190503
