17
Coordinates from ORCA-job NEB_reactant E -41.228418908660
  C           0.64377885350501      0.90162055201959     -0.88836695875470
  C           1.94968277470380      1.13930933382864     -0.83912402206241
  Br         -0.57737226997971      2.08811516738358     -0.08041778452386
  H           0.21179394743080      0.04019238129671     -1.36328946394936
  Br          3.10805228547993     -0.09906557485690     -1.74603505472372
  C           2.22748141409969      3.83399188424159     -2.37846271447429
  C           3.42752216668229      3.45817302472797     -1.96360962380513
  C           3.66145839801701      2.76719380239718     -0.65366710945751
  O           2.50673675815020      2.12680728805665     -0.14041978396932
  C           1.91970395576048      4.46004189018115     -3.68810957566746
  H           1.34889626986988      3.69417895449548     -1.76251434148310
  H           4.30842768145137      3.61751197533827     -2.56676077630087
  H           3.94133394451215      3.49225681072377      0.11685405872162
  H           4.47878176104634      2.04162682207061     -0.75940871283613
  Cl          0.84356352548262      3.35427530352137     -4.60249651250139
  Cl          1.04729828676482      5.99635808794201     -3.42459318972548
  Cl          3.34656024702332      4.78851229663233     -4.67867843448691
