16
Coordinates from ORCA-job NEB E -37.476582293900
  C          -0.12124049888402     -1.47497126227753      0.17177898908594
  C          -1.01574318286175     -0.93037839576166      1.10258256857700
  Cl          1.48664846171680     -1.82800043065517      0.70718775645463
  H          -0.50288023097270     -2.18182100990537     -0.55773453224688
  F          -2.33148580010105     -1.02950464626708      0.71589470591181
  C           0.10229308704354      0.25034985601433     -0.85675782217131
  C           0.48411033896061      1.15281885970070      0.13329165268276
  C          -0.44441259014099      1.49297533031159      1.13099500217242
  O          -0.73820949908723     -0.02702936174267      1.91544263329940
  N           1.09137262653003     -0.14047740978838     -1.84718128842545
  H          -0.89713462848426      0.26113364963262     -1.27902010442320
  H           1.54357189215667      1.26645533646405      0.31718290656333
  H          -1.46852039123276      1.68861267404253      0.83461698564367
  H          -0.10332331828489      2.09124271499565      1.96338271714457
  O           2.25558494383630      0.00262299399040     -1.57073236887269
  O           0.65936878980569     -0.59402889875398     -2.88092980139601
