16
Coordinates from ORCA-job NEB_product E -37.523266358260
  C           2.19181083107267      0.83378952016221     -1.77307325225234
  C           1.04841400616693      0.15671001623737     -2.49270205495162
  Cl          1.70809122598331      0.85728644493164     -0.03962686794592
  H           3.10423379011079      0.23745535055086     -1.85376289776728
  F           1.15170682080887     -1.18174310671453     -2.40668436083523
  C           2.38638984361610      2.26572793745001     -2.25598283653407
  C           3.50711723303607      2.97023277737171     -1.54615528314407
  C           3.44194687396651      4.23334542856912     -1.17085828973787
  O           0.13171759173771      0.66183524765829     -3.03310374984648
  N           2.72371212892128      2.23673245534274     -3.72450795395980
  H           1.45681561855168      2.83784460481315     -2.16771786174980
  H           4.39709318784107      2.37844094785718     -1.38560218685411
  H           2.56334852804175      4.83356432882881     -1.33645243558624
  H           4.26992223638043      4.71621750618728     -0.68299742601166
  O           2.96433721499104      1.15860101619084     -4.20578031075201
  O           2.74204286877380      3.29285952456332     -4.28989223207148
