20
Coordinates from ORCA-job NEB E -49.790541240790
  C           1.04009878143146      0.52455660040640      0.32444821515323
  C           0.38220155257497      1.04160596312521      1.44497143916325
  C           1.00810524830806      1.38717550110995     -0.92324994033489
  H           2.03063274882926      0.09974542718995      0.46254667819257
  Br          0.99529111309109      0.36532675445214      3.16422297670552
  C          -0.14780241188386     -1.01393770251294      0.00366686895107
  C          -1.41280378944547     -0.42935390616752     -0.03733901251741
  C          -1.87760149892223      0.24979454157727      1.12889649534268
  O          -0.82139808860478      1.44466085765548      1.39832046779455
  C           0.35247473416118     -1.76102369281448     -1.21302767627483
  H           0.15543372569707     -1.52654857580792      0.91389039429353
  H          -1.83028247927467     -0.15887688906177     -0.99538539137918
  H          -1.79849134437542     -0.29257822201223      2.07008402842784
  H          -2.81299923796131      0.78650440567876      1.03054488256315
  F           1.59023442180457      2.57352387017837     -0.65692334707218
  F           1.70455582835280      0.85374323317796     -1.92487249607326
  F          -0.21076507111009      1.66798589422085     -1.38592979059626
  F           0.01494437806554     -1.15358575654232     -2.36704145176806
  F           1.70052567257147     -1.87442465747239     -1.19581330139381
  H          -0.06235428330963     -2.78429364638079     -1.24201003917751
