20
Coordinates from ORCA-job NEB_reactant E -49.820854783850
  C           1.70532095307287      0.06942985831763     -0.02616263375815
  C           0.90186662699390     -0.96538717851234      0.24087982704778
  C           2.38497834744681      0.18113601545770     -1.34993649356272
  H           1.89915215724033      0.85022822570220      0.68546020179022
  Br          0.07111082787817     -1.04456434826989      1.95347502155710
  C          -0.18394511585463     -5.16240588955077     -1.57905843069905
  C          -0.30620166064978     -3.84677602483767     -1.57142047484999
  C          -0.20855848265584     -3.00936933148624     -0.33754663273698
  O           0.66930958979362     -1.92849302265953     -0.62728127416020
  C          -0.31071127211656     -5.99795777457359     -2.81732507358016
  H          -0.01127922681179     -5.73888515534553     -0.68183985090312
  H          -0.47890804029718     -3.29649459214454     -2.48542372248724
  H           0.17417402582360     -3.59272570856497      0.50859712051222
  H          -1.20371579814102     -2.61851729524923     -0.08053351217084
  F           3.22257973084935     -0.84360745271285     -1.59860537042636
  F           1.52375007201217      0.20878864621744     -2.38306817062641
  F           3.11603833905425      1.29845174826608     -1.43089601167546
  F          -1.19510499508126     -7.00933671845223     -2.61567991376630
  F          -0.77412871691066     -5.28929142633228     -3.87008915434626
  H           0.64707263835362     -6.45882257526940     -3.11684545115807
