20
Coordinates from ORCA-job NEB_product E -40.641718329660
  C           3.03311473603034     -0.49543488871426     -1.87313262384061
  C           1.95520337005321     -1.57798589640057     -1.58076866017293
  C           3.02769241201517      0.48426099938800     -0.81610552200301
  H           4.00034875708237     -1.01849913194120     -1.85926475811197
  N           1.90800940678660     -1.95737458991801     -0.29354682724515
  C           2.76979019208252      0.11382158215171     -3.26604991822317
  C           1.76177432490197      1.22847828457583     -3.18150564653882
  C           0.53775759984844      1.12405108636647     -3.66146766169965
  O           1.27116081093261     -2.04849402271738     -2.45284605149348
  C           4.04128601424961      0.59417981855054     -3.94679994791005
  H           2.34843942306385     -0.69374690899608     -3.88297843597791
  H           2.09375353061349      2.12879500927763     -2.68032360416466
  H           0.19341308483011      0.22641351911018     -4.14788534232437
  H          -0.16901788970906      1.93032750954192     -3.57539691464602
  N           2.98900292500300      1.22521314545221      0.05383105230385
  H           1.22740949221060     -2.64940844459674     -0.02393883184095
  H           2.43613085094066     -1.49646306481054      0.42780865674569
  Br          3.60469481985286      1.33876923271248     -5.70026297581746
  Br          4.98026627934433      1.96727982345421     -2.91840663214103
  Br          5.29186985986735     -0.89318306248638     -4.23805935489829
