20
Coordinates from ORCA-job NEB_reactant E -40.622506969910
  C           1.96020599382823      0.19087671548078     -0.47223149277810
  C           1.55610464420453     -1.03125551359864     -0.89865696981080
  C           1.99570317793700      1.38269104147769     -1.18804414772726
  H           2.27102501852263      0.28198971330298      0.55891942575231
  N           1.48948857178969     -2.09508460423539     -0.04529204656794
  C           2.90913839976163      0.92470124217604     -4.21398517933263
  C           2.50875873204278     -0.23086682250746     -3.71042927668639
  C           1.12346505000762     -0.47992227702419     -3.19563283137101
  O           1.11903656940456     -1.40235505620760     -2.12564295999641
  C           4.25508181943194      1.22073670687663     -4.74231408903431
  H           2.23899172525424      1.77494664283434     -4.25078070847706
  H           3.17028884804153     -1.08559698126860     -3.64754457801995
  H           0.53544655168650     -0.97617144517165     -3.97702686476091
  H           0.62594930276225      0.45468637684586     -2.91924148409420
  N           2.05816852064433      2.39466312633041     -1.73459905083878
  H           1.36452479160955     -3.00056271253528     -0.46439989143793
  H           1.98744511009258     -2.05037575117120      0.82509617910507
  Br          4.10589773647038      1.74585749634773     -6.63817829494692
  Br          5.04289818045653      2.72659302572711     -3.75400559231891
  Br          5.50208125605151     -0.25935092367956     -4.65241014665788
