17
Coordinates from ORCA-job NEB_reactant E -29.751373537330
  C           2.44416180759532     -1.08100276263418      0.45027262904693
  C           1.30530187312205     -1.68379072012375      0.15661783318045
  H           3.29524042322509     -1.12020631034064     -0.20476116455981
  H           2.55343961434787     -0.53780806337578      1.36882105517925
  Br         -0.17395846766191     -1.63447735608456      1.35408345479145
  C           3.05608579982847     -4.29213548586995     -0.64851994275798
  C           3.00768913725472     -3.46557589143943     -1.67888417052874
  C           1.87159917353286     -2.53229995242967     -1.97677764017751
  O           0.93751151541272     -2.39269202140398     -0.92389890495200
  C           4.18884287126285     -5.22321730891840     -0.36552167326235
  H           2.25510528585511     -4.34680990145120      0.07514562110207
  H           3.81438247925063     -3.43480939538198     -2.39723215756622
  H           1.28463304737379     -2.92549540008863     -2.81433608057213
  H           2.26206937720719     -1.54681034457542     -2.26597351459406
  F           5.19214746442767     -5.11285679475424     -1.29374274815144
  H           3.84949221801141     -6.26641707616743     -0.38520950047803
  H           4.63605637995419     -5.00809521496077      0.61321690430014
