17
Coordinates from ORCA-job NEB_product E -29.774744887720
  C           2.75308070664449     -2.50276179638476      0.69171666735827
  C           1.59630426540571     -1.59753457772761      0.44111148845449
  H           3.65534416191461     -1.88753730081681      0.74344990245046
  H           2.60767662794587     -3.02049604924076      1.64236891363592
  Br         -0.11978261797397     -2.55304096459024      0.55937385652273
  C           2.88241203546451     -3.53561764821150     -0.44503992545558
  C           2.96776039058857     -2.83815949159023     -1.77400743956416
  C           2.09154087744018     -3.00046188330705     -2.74593586964215
  O           1.58375215490261     -0.44632199823138      0.18849941300086
  C           4.12841467460631     -4.39302106999380     -0.20327448356508
  H           2.01092352545118     -4.19822303776314     -0.43934062706425
  H           3.81321251961096     -2.17300188551504     -1.89272718567488
  H           1.24575913188979     -3.66065474394651     -2.64463026233943
  H           2.18421372903703     -2.48353870184330     -3.68499520776933
  F           4.16676626605937     -5.42414106739693     -1.10246274219242
  H           4.11460842389896     -4.84507759117782      0.79456717773147
  H           5.04881312711383     -3.81561019226312     -0.34287367588692
