20
Coordinates from ORCA-job NEB_product E -49.584977621100
  C           2.64460379450963     -1.26653061003394     -1.33520265569489
  C           1.80278962330698     -2.22170719115528     -0.51743962881472
  C           2.37533173454523      0.11346106809484     -0.97339170636459
  H           3.70553672107665     -1.46272948548118     -1.08854357718213
  C           1.79600733067400     -1.90036863143596      1.00653288527532
  C           2.44716460087033     -1.51537085569217     -2.84267422882026
  C           1.27186339876805     -0.78945828336489     -3.42570687212333
  C           0.18460592772556     -1.40733104441429     -3.84601220503137
  O           1.18941010539884     -3.14691664742918     -0.95344260145654
  N           3.70643618798603     -1.13912016570260     -3.57661947721963
  H           2.32708895713560     -2.59730243706696     -2.99321843808361
  H           1.36420281582484      0.28629063211438     -3.47381097167608
  H           0.08101742462356     -2.47897832604741     -3.79950481032039
  H          -0.64949275617014     -0.86016850866862     -4.24693658206317
  N           2.16262900014825      1.20449508553376     -0.72090749865788
  F           0.87289902771790     -0.97446449247322      1.28553092780680
  F           1.52232862058560     -2.98255928242216      1.72736341679826
  F           2.98011929364923     -1.42761375453318      1.41617366228421
  O           4.74518319175859     -1.26934056500117     -2.97740391776693
  O           3.57957499986530     -0.77018650482078     -4.71008572088907
