14
Coordinates from ORCA-job NEB_product E -30.197066244410
  C           1.94062044795605     -0.57482803180261     -1.90634917576837
  C           0.62351819733858     -1.31261360152574     -1.87459369732678
  Cl          1.81362462888180      0.54881309999378     -0.50101901967321
  H           2.78605819320955     -1.23527726173472     -1.70646842685629
  Cl          0.66247223340345     -2.68176843914190     -0.78628004913608
  C           2.12026663175470      0.23995605476115     -3.17040969283859
  C           3.31591415170799      1.11933084428322     -3.12635327263238
  C           3.28893136878059      2.39629407299656     -3.46286107956980
  O          -0.36350459711717     -1.00913189708545     -2.45456801732749
  I           2.33243515420674     -1.19311397733131     -4.80945848273751
  H           1.21239198919347      0.79939337031731     -3.39587889363199
  H           4.23342870666645      0.64457762627475     -2.80568030918715
  H           2.38322566073847      2.87880129957432     -3.79172147136414
  H           4.17161723327933      3.00926684042063     -3.41835841195023
