19
Coordinates from ORCA-job NEB E -42.597669507140
  C           0.50087156991667      0.40905751391697     -0.39424614592731
  C          -0.22806164941789      1.22958992101451      0.62552999853942
  O          -0.01468086370289      0.69672670323197     -1.66556052645376
  H           1.57914889242720      0.62864128626603     -0.36573683021584
  C          -0.14503554515732      2.66496339603950      0.77848220668737
  C          -0.24660973030343     -1.96260670272540     -0.95769785126734
  C           0.24159279491102     -1.05849214532915      0.11449858191483
  C          -0.78979517760516     -0.87110263645027      1.24284323724445
  O          -0.89914958976825      0.51663052935421      1.52086271538567
  C           0.57965061841396     -2.85916010985362     -1.56171606157593
  H          -1.25326108320935     -1.84466150308433     -1.32499609678429
  H           1.17956017103285     -1.44400528476202      0.52169794519886
  H          -0.48933918785458     -1.37215812972263      2.16564577002493
  H          -1.78425172235471     -1.23284493315493      0.95584313264925
  H           0.50429801227561      0.23915927021420     -2.33808494021805
  Cl          1.35868436883206      3.02153614055641      1.86799162492816
  Cl          0.14009296818687      3.51056886507477     -0.73136036768534
  Cl         -1.53346494509926      3.33499772752129      1.62989927833989
  N           1.29975009847661     -3.60683990810750     -2.08389567078497
