19
Coordinates from ORCA-job NEB_reactant E -42.653395343780
  C           1.65093051394275      0.28376011641702     -0.12347788671428
  C           1.76971670221917     -0.33869903196186      1.05865044159207
  O           1.93749061798084     -0.30366390713597     -1.28779334586678
  H           1.34265959383986      1.31121764925844     -0.22332373902420
  C           1.45085680139311      0.29723619344339      2.37244715944987
  C           1.35860845167772     -5.08355433548910      1.11519558435634
  C           2.03976514773841     -3.96241550239432      1.34180648789622
  C           1.40451177891349     -2.64018139204784      1.60893034773638
  O           2.25207947406271     -1.63388370803946      1.05678239377749
  C           1.99431090623666     -6.32201159530881      0.89937487618892
  H           0.27632815367834     -5.10510371383052      1.09363906741911
  H           3.12073010944642     -3.95899829922432      1.35677290291185
  H           1.31550315075156     -2.50299084560012      2.69646324994559
  H           0.39976295408508     -2.57837953502811      1.17044559971845
  H           2.23995774660224     -1.21040788557808     -1.11379236024008
  Cl          2.57626128194205     -0.26688388398927      3.63195245180031
  Cl          1.54561306317879      2.06308004117959      2.29379417169134
  Cl         -0.22656648088821     -0.11823102941825      2.89622843231776
  N           2.49578003319901     -7.33658933525240      0.71740416504364
