19
Coordinates from ORCA-job NEB_product E -42.641827746900
  C           1.78235764077098     -1.64953690151004      0.34802990375145
  C           2.74390804197610     -1.13153883638157      1.42150390376710
  O           2.39485692871364     -1.31620643371996     -0.87024521848069
  H           0.81193239746149     -1.13760775672612      0.45662905378810
  C           2.51343985846507      0.33620794943430      1.80915366264448
  C           1.54773737456292     -3.17193430831825      0.51540907346710
  C           0.92584988740193     -3.47744861917909      1.85350851840010
  C          -0.31647744099269     -3.89607795743413      1.99594513916110
  O           3.58125589753260     -1.78620036133436      1.95717736469115
  C           2.78591024790373     -3.91135731523901      0.36661509046616
  H           0.87183839031375     -3.49562881356810     -0.28826792709931
  H           1.57209393207919     -3.33118157065286      2.70672037397283
  H          -0.73262733712538     -4.10053020287902      2.96657197290833
  H          -0.96965018678978     -4.05625866462222      1.15311107327212
  H           1.86030335173030     -1.63815382404748     -1.60621972077447
  Cl          3.88302714161880      0.97505244290493      2.71428200448639
  Cl          2.15208879579416      1.37475820043008      0.43480886470760
  Cl          1.07894738070872      0.24133191886598      2.88165286992821
  N           3.73080769787446     -4.53578894602308      0.22451399694226
