19
Coordinates from ORCA-job NEB_reactant E -42.202140019420
  C           1.69499920896439     -0.16831652068491     -0.13560471808680
  C           1.62836172294371     -1.44188209787825     -0.53824209918821
  O           1.88577951636356      0.89460035800462     -0.97400973983541
  H           1.58272090217901      0.05318075696519      0.91435032452981
  C           1.40505787372983     -2.57043748420030      0.42644017624354
  C           3.88935754785848     -2.46776842453241     -4.34906429616170
  C           2.68867804572331     -2.07219522342601     -3.94921578986882
  C           2.46485717478288     -1.18534797903604     -2.76961417598710
  O           1.76624794370269     -1.95642090375324     -1.79003605157030
  O           4.14959275102934     -3.27082269716989     -5.40091247812600
  H           4.80101384397889     -2.14771662170502     -3.86495574524486
  H           1.79604678338178     -2.42253114155795     -4.44872036839260
  H           1.86085506664705     -0.31357880954544     -3.04558727598100
  H           3.41907499162151     -0.84175569791512     -2.35680843484620
  H           1.95640539784755      1.70396340644515     -0.45839882198422
  Cl          2.92216623374714     -3.51152711102023      0.57446650469202
  Cl          0.92302179542164     -2.05696470131079      2.04086928730745
  Cl          0.14726491368945     -3.65574797723645     -0.20656138750104
  H           3.32229828638778     -3.56243113044291     -5.80599490999852
