28
Coordinates from ORCA-job NEB E -39.563564464180
  C          -0.88977816856288     -0.38080227539219      1.48028278615633
  C          -1.26767376449610     -1.15615326441295      0.46440005652823
  O          -0.86943182080078      0.98327483074795      1.39517221655497
  H          -0.55414025151013     -0.83392015163937      2.40292561834970
  O          -1.10532433046465     -2.52026280456103      0.57179880838209
  C           1.50343868143526      0.16344414673122     -1.57774394307455
  C           0.20363194351718      0.40950237449509     -1.57357319464236
  C          -0.84389912732395     -0.63711160760831     -1.79071485721951
  O          -1.78040802013855     -0.67676041546457     -0.70764298843856
  C           2.57796623618723      1.18728839412927     -1.34612977026277
  H           1.84809773886648     -0.84256611851982     -1.78407708723513
  H          -0.18715439221606      1.39237680734057     -1.35835987165452
  H          -0.38202052068534     -1.62391081844699     -1.92776819701746
  H          -1.45622140812294     -0.39772465238900     -2.66611393629484
  C          -0.61615437351629      1.64501519200121      2.60919932601890
  H          -0.56123567394045      2.70649170318447      2.37391813624156
  H           0.33322620636159      1.32241979906523      3.05140555863816
  H          -1.42064382762059      1.47613541973934      3.33364555250646
  C          -2.21390420860494     -3.29178977688304      0.13984216731253
  H          -3.05269604395390     -3.18481961187541      0.83502685248644
  H          -1.87450291363090     -4.32549775020894      0.12798242173151
  H          -2.54118374076418     -2.99627671789734     -0.86002658546767
  C           2.28516421351073      2.10888830314746     -0.16438920022729
  H           2.69743668029137      1.79124067468494     -2.25138341284058
  H           3.52551793530686      0.67345073183430     -1.17181444269193
  H           1.39259487748294      2.70067972185466     -0.34298760287642
  H           3.12068485323760      2.78602691686468      0.00050017870146
  H           2.12861322015539      1.52136094947859      0.73662541033525
