28
Coordinates from ORCA-job NEB_product E -39.599773397730
  C           3.20296562368301      0.10695485503171     -0.91465027234116
  C           1.98401952765069     -0.81000777509432     -1.01246075862397
  O           2.90415252434993      1.30734096791564     -0.25433085495114
  H           3.99496533307212     -0.44299350320212     -0.37538804240792
  O           2.34869350907286     -2.03230441472818     -1.42159685889186
  C           3.67894467881852      0.38294036944215     -2.36038136265524
  C           2.58103551626851      1.05878129651388     -3.12763251590957
  C           2.16513741925127      0.66568007528098     -4.31611195097992
  O           0.84903915305298     -0.49908644481896     -0.77562498884901
  C           4.99499698244905      1.18188502607865     -2.40637973435614
  H           3.87849210683122     -0.59928362730788     -2.80424474237023
  H           2.12888755229913      1.90171896758770     -2.62737400153790
  H           2.60159662811690     -0.18266175366763     -4.81999460630381
  H           1.37439260957742      1.17438061786563     -4.84054230734951
  C           2.63912411730602      1.16304544420803      1.11994954001386
  H           3.48138016668677      0.68121461802693      1.63403496746810
  H           1.72955205258157      0.58345441327127      1.29927280684207
  H           2.50573316262675      2.17080476505749      1.50844915034013
  C           1.28976270681047     -2.96214301294083     -1.61822230341555
  H           1.75585484273031     -3.88709338791976     -1.94703904040594
  H           0.59741549541375     -2.58803210844682     -2.37462849856321
  H           0.74302919456284     -3.11650759392591     -0.68602272992213
  C           4.84647711590306      2.67323435909528     -2.13185463562507
  H           5.42593032221217      1.04793937720752     -3.40174012459551
  H           5.68836470381315      0.74492583313348     -1.68372843878059
  H           4.27514152540263      3.15093177254484     -2.92345543978396
  H           5.82908627471614      3.13888588877077     -2.08978543349928
  H           4.33742915474075      2.83709497502043     -1.18791682254556
