19
Coordinates from ORCA-job NEB_reactant E -40.675190643100
  C           1.85582298729181     -0.07740885202435     -0.03874184902717
  C           1.14346523593461     -1.20117545219690      0.19638760365933
  N           2.17669756908813      0.38997668421714     -1.33541223068292
  H           2.22785067335306      0.53567387640431      0.76411471151530
  Cl          0.84881538861773     -1.62845750450462      1.85174328203358
  C          -0.24917236441481     -5.02221523732480     -2.07711976411804
  C          -0.48382149998751     -3.76454471190188     -1.74449151619804
  C          -0.06544465510868     -3.15586298815166     -0.44447781491286
  O           0.67246461057248     -1.97120098825179     -0.74288436728691
  C          -0.68518846003451     -5.64917139224129     -3.36114875924631
  H           0.27690109965092     -5.69709180413636     -1.41569550143653
  H          -0.99528259210587     -3.09824466942593     -2.42277489645266
  H           0.55801159775474     -3.84640975919369      0.13526853517225
  H          -0.94928500110866     -2.88877616500638      0.15082010359373
  O           2.82831812690172      1.41568221179050     -1.38418826189237
  O           1.79978634859756     -0.23579505111496     -2.30328319854043
  F          -1.46351053303114     -4.80810029666500     -4.10861275106979
  H          -1.28145661938740     -6.55088811675342     -3.17208873873250
  H           0.18372808741582     -5.91408978351892     -3.97711458637765
