14
Coordinates from ORCA-job NEB E -30.329588399300
  C           1.28217763414323     -0.26455231586683     -0.68225213974066
  C           0.45004654669773      0.72340930248006     -1.21068195142883
  Cl          1.11081990621691     -1.87861817669459     -1.32731711141343
  H           2.32013784568424     -0.03214524256255     -0.47199948949056
  I           1.13533144120933      2.74785757913470     -0.82379839003098
  C           0.43386830425308     -0.42666744237770      1.08926481311923
  C          -0.89748926219437     -0.66369300317446      0.75726813455199
  C          -1.60789074155680      0.34788268146015      0.07418460590447
  O          -0.78505676262503      0.56158774832162     -1.37889767582891
  F           1.13121272757022     -1.42026580394911      1.65695520422129
  H           0.75661428227208      0.53261825078510      1.48910109641855
  H          -1.20626137838755     -1.69292930284588      0.65009272003935
  H          -1.52181786410452      1.36269913374372      0.45286315779630
  H          -2.60169267917856      0.10281659154577     -0.27478297411782
