14
Coordinates from ORCA-job NEB_product E -30.368904034360
  C           1.54447647174334     -0.45041166661852      1.87539849531590
  C           1.03407129779040      0.60102409281740      0.94326664086954
  Cl          0.97278374995151     -2.04596175771121      1.30303995499822
  H           2.63812453859757     -0.47639360867876      1.88033680287230
  I           2.11882002011280      2.46652118775723      1.19740751607714
  C           1.04510038159102     -0.18352592467896      3.31557482874229
  C          -0.44614746663018     -0.29858835150088      3.42050117722225
  C          -1.25313284326529      0.74379390869664      3.38372644207368
  O           0.16142386788512      0.53996777109965      0.15840397892290
  F           1.65843724474029     -1.08965616451328      4.14322623741926
  H           1.39522698551838      0.80760078796791      3.63694925682945
  H          -0.81581696665750     -1.30834400859818      3.51519145768120
  H          -0.88430793780640      1.75339911911618      3.29613754352414
  H          -2.32085934357107      0.62897461484479      3.43863966745173
