14
Coordinates from ORCA-job NEB_reactant E -30.355158254160
  C           1.91493356728413      0.23545779309740     -0.00958291924511
  C           1.53438812826627      0.64693920548688      1.19312250791199
  Cl          1.72439015307927     -1.40041160784579     -0.50150055639997
  H           2.37587034564679      0.88506036253549     -0.73294776093181
  I           1.83100165480373      2.72326334153536      1.63695474098320
  C          -0.38698838019852     -0.32733105344123      5.22004698210028
  C          -0.32558878782247     -0.72625147792053      3.96396702672321
  C          -0.12303112030712      0.21804010596324      2.82677704575508
  O           1.09212251683224     -0.13619026834120      2.16970756970973
  F          -0.57813630761538     -1.18933804312076      6.22269270157917
  H          -0.31778916548650      0.69355167112476      5.56968720169153
  H          -0.39329551389182     -1.77468206803035      3.71709413686770
  H          -0.06249600714465      1.25282655016177      3.18911250888152
  H          -0.95458108344599      0.13826548879496      2.11226881437347
