20
Coordinates from ORCA-job NEB E -32.990579216500
  C           0.59003023129800      0.78820929001816     -1.21002392446519
  C          -0.39694488454451      0.82423685922530     -0.22686099096964
  N           0.34552864918311      0.23970078918065     -2.46146079711277
  H           1.41968402288734      1.47513876145834     -1.13273912768270
  O          -0.08018274607461      1.56774754523138      0.87914026170963
  C           1.45563700986252     -1.04384851780578     -0.25591917799099
  C           0.52466441482778     -1.50498676977242      0.64769650691175
  C          -0.78593086283667     -1.70642100862856      0.20648124641514
  O          -1.35694466825483     -0.00497262757802     -0.19717686378158
  Br          3.16964350059380     -0.52546998919236      0.36193281830178
  H           1.48273866465199     -1.40611526655918     -1.27183130960787
  H           0.69559827457948     -1.32445695794812      1.70128291416560
  H          -1.54241776058700     -1.99205041961292      0.92025895623769
  H          -0.94108918658228     -2.08194222443343     -0.79394654572475
  H          -0.60961054327585     -0.06963240245543     -2.57778817976758
  H           0.69880510528316      0.76768366752046     -3.24327569697032
  C          -0.99698534964868      1.50287025469259      1.95356361474169
  H          -0.65527042381269      2.23768636011663      2.67868510667892
  H          -1.00982374930514      0.50926848839018      2.40754325394653
  H          -2.00712969824493      1.74735416815252      1.61443793496465
