20
Coordinates from ORCA-job NEB E -33.528729913230
  C           1.07491985766604     -0.45677855837378     -0.31916906267442
  C           0.61977383596851     -0.62765128413179     -1.63272383070977
  C           0.75291952978154     -1.58216729200034      0.63440237105180
  H           2.08718126184859     -0.08844255322079     -0.18866987401887
  H           1.13114052006687     -0.09488177004800     -2.43866065891960
  C          -0.08330112307573      1.00469886803821      0.21135123724298
  C          -1.34580077684688      0.44825779412259     -0.01832630989315
  C          -1.69759276546836      0.09296826235515     -1.34751022823712
  O          -0.59555848793463     -1.02369280215838     -1.83774037749477
  C           0.30343689845104      1.43931213815447      1.59890946004806
  H           0.27453421463571      1.69682604194637     -0.54641704853990
  H          -1.83730158645513     -0.06208798289315      0.79805680658389
  H          -1.53924191464496      0.85058545677958     -2.10973569396229
  H          -2.63054260051555     -0.44005210852641     -1.48191346906876
  F           1.55262938806746     -2.64482889524657      0.34076145152184
  F           1.03360918369663     -1.28540770159040      1.92488202545672
  H          -0.28864115571842     -1.92552453000668      0.57112691536266
  H          -0.12165021600358      0.78820672357795      2.35645792854000
  H          -0.07313822259151      2.44884209657149      1.76186957330045
  H           1.38262415907236      1.46181809665049      1.72304878441024
