20
Coordinates from ORCA-job NEB_product E -33.569817028430
  C           1.55097393337798      2.08452467561361      1.31601738586600
  C           1.52915760755901      1.77672514464243     -0.16319050449678
  C           1.07626267344030      0.85506587115352      2.08720614046794
  H           2.57500122906380      2.31598323782917      1.62504380343271
  H           2.17839602913938      2.44998078065233     -0.75483414457873
  C           0.66573449327908      3.34884897574254      1.52441295538907
  C          -0.78991854942480      2.97902128084820      1.52530263985338
  C          -1.58909743111146      3.12489502331855      0.48586215867162
  O           0.85287596120737      0.94079240205502     -0.68663910236365
  C           1.04433210365727      4.08982106840230      2.80634304688756
  H           0.85927210171371      4.01129125184076      0.67178606059832
  H          -1.16384604379398      2.57518405129114      2.45610341517105
  H          -1.23848963120084      3.52730485593741     -0.45063705303948
  H          -2.62780532828777      2.84660491097575      0.52438799378342
  F           2.04668132784202     -0.09206740124181      2.05932614328148
  F           0.85950142129951      1.11265052385637      3.39854737826186
  H           0.16061046958923      0.41693857987714      1.66504902441741
  H           0.89749717390937      3.46147810695926      3.67961124319492
  H           0.41939709662732      4.97387137785904      2.90924263934351
  H           2.08446336211351      4.40598528238725      2.77415877585839
