20
Coordinates from ORCA-job NEB_reactant E -33.565224519440
  C           1.93629127648537      0.09869765961927      0.03585910961203
  C           1.17982053289864      1.18537080066601     -0.10017754411973
  C           2.37141771128999     -0.41900145972130      1.36356342934583
  H           2.26306734518695     -0.45642885810512     -0.82598157250106
  H           0.88699141745801      1.52751741592032     -1.08814877088879
  C          -0.34844484612652      4.91846524272040      2.27573402648284
  C          -0.52299703590832      3.65850530621898      1.91476734670742
  C          -0.02151092206856      3.07046430830184      0.63350949881049
  O           0.73726384563803      1.90623769241819      0.94251645148089
  C          -0.85865923377179      5.51413100667887      3.54227472147452
  H           0.18660921593857      5.59766204130100      1.62359356317906
  H          -1.04642541316306      2.96345473434260      2.55567291136583
  H           0.60429164183248      3.79306371505262      0.09337806632419
  H          -0.87067796865896      2.79131580574935     -0.00915858109117
  F           1.91011054845512     -1.68388155583260      1.57812382165022
  F           3.72846402521340     -0.51992536408495      1.43345587107830
  H           2.03431972795983      0.20965868467932      2.19943642747183
  H          -1.37882336532263      4.77272746563851      4.14245941133303
  H          -1.54109820446696      6.33454557649165      3.32243077106800
  H          -0.03151029886958      5.92221978194503      4.12179104121628
