18
Coordinates from ORCA-job NEB_reactant E -30.048247049090
  C           1.53950421566040     -0.71690665913598     -0.19596884468298
  C           1.08050621449736     -0.66699014591365      1.04549724791977
  C           2.93421998348828     -0.34880731729033     -0.57646837130372
  H           0.87677582758224     -1.02685954508179     -0.98864094853311
  Br         -0.75120727508616     -1.20114442976656      1.38634854916972
  C           1.62867813025382     -3.45372406120261      3.36898045117523
  C           2.29176509221368     -2.33536202817179      3.08301349826669
  C           1.73349111668855     -0.96459610975224      3.29853575641947
  O           1.75885480114074     -0.19246170813489      2.10385957321221
  C           2.17721386715098     -4.73076671332583      3.13618803348498
  H           0.63487150876722     -3.43991263429999      3.79846245955618
  H           3.27529805654830     -2.37505942461472      2.63288105028310
  H           2.35902310197089     -0.40128520987250      3.99799253773517
  H           0.71014753307003     -1.01643742993420      3.69286012596759
  H           3.51843674133682     -0.08672337918484      0.30109333073808
  H           2.92049479986689      0.50233104222799     -1.25615612532558
  H           3.40879801990454     -1.18143864634471     -1.09439350566671
  N           2.62042826494544     -5.77045560020138      2.94561518158393
