14
Coordinates from ORCA-job NEB E -29.850266678670
  C           1.01230712949464      0.88014063665240     -0.60430401265636
  C           0.76434228952539      1.05898586001986      0.75386517654143
  F           2.00108641435925      0.01256650718360     -0.92142301066084
  H           0.99174502883899      1.71398483864288     -1.29646825924304
  I          -0.42988601447258      2.80863788418964      1.19209070237914
  C          -0.53010500312094     -0.32108346271381     -1.09469879674341
  C          -1.05080178636800     -0.80506718180619      0.10267701574410
  C          -0.13705884895519     -1.29505502041735      1.05471829661369
  O           0.71725649237657      0.10697266466222      1.57065218848002
  Br         -1.69097552038617      0.66811895817233     -2.24137457055735
  H           0.14980889486243     -0.93560377293965     -1.67230959334306
  H          -1.98581194459218     -0.39191965239003      0.45924107919287
  H           0.71140908832045     -1.86535835636162      0.69213647222357
  H          -0.52331621988264     -1.63531990289429      2.00519731202926
