14
Coordinates from ORCA-job NEB_reactant E -29.883600278320
  C           1.92447771852347     -0.24028180626218     -0.18266403323048
  C           1.31195900422162     -1.09126849323314      0.63089275357341
  F           2.67846024658313     -0.67227314588384     -1.20335470401862
  H           1.88918825245610      0.83277771737452     -0.09797249348706
  I           0.13114398346866     -0.22708558994678      2.18818815212291
  C          -0.78270677749392     -3.98722109780376     -1.41936865114969
  C          -0.57866175211534     -3.04805478982944     -0.51306416151486
  C           0.31831860051057     -3.24155821539634      0.67057411678018
  O           1.47212564128283     -2.41332705005179      0.60864753734188
  Br         -1.91111199412737     -3.73901826497519     -2.90828511113995
  H          -0.34016640605988     -4.97007995782671     -1.37539545204293
  H          -1.04179277002340     -2.07494715716527     -0.60869892362898
  H           0.70909917047685     -4.25954996225309      0.71338696214603
  H          -0.23623291770331     -3.02341218674698      1.59591400824816
