19
Coordinates from ORCA-job P E -28.205822783940
  C          -1.44590480206465      0.49867099067148     -2.26733024745116
  C          -0.04411360237488     -1.57949038733522     -1.13243235189140
  C          -1.39725896137667     -1.85712785696105     -1.70759594825739
  C          -2.06665787856936     -0.86346373033544     -2.27012599756435
  C          -0.93976193913158      0.81661640912920     -0.85115272261328
  C          -0.07285113919111     -0.30917832273336     -0.24888404122831
  H          -1.78470177272836     -2.86159966661836     -1.65289723051543
  H          -3.04420341769836     -0.99390873686870     -2.70531855645426
  H          -2.16117218476850      1.26023043388486     -2.57787027576118
  H           0.31647579476049     -2.41980628315492     -0.53991261997646
  H          -0.61383210887648      0.51815993057538     -2.98090690111175
  H           0.66293213697775     -1.43324890204376     -1.95823549403628
  H          -1.81220361586035      0.95985238859864     -0.21235579901168
  H          -0.47064787971072     -0.59002366665233      0.72909477130057
  H          -0.39242800994820      1.76302332688043     -0.85640182315456
  C           1.36366226689323      0.13855647251647     -0.02210229284977
  O           1.94945191209305      0.00453739512675      1.01214661250858
  O           1.96297728433870      0.69038625476420     -1.09204846623840
  H           1.36482791723600      0.73560395055573     -1.85102061569349
