19
Coordinates from ORCA-job TS E -28.100158284150
  C          -0.98919978876135      0.57677028455594     -1.43212633646881
  C           0.42859399946932     -1.63836080686390     -0.22082116469637
  C          -0.90315561348028     -1.64244548209547     -0.43154801490310
  C          -1.60078874406533     -0.57534496363724     -1.05696686272706
  C          -0.42669312044310      1.33198442859706      0.58401215796130
  C           0.31800329784701      0.39852836196591      1.23576701204364
  H          -1.50573401189200     -2.41285729946895      0.03022035560564
  H          -2.68131323580432     -0.61366224379065     -1.03215886300409
  H          -1.56997094148262      1.39760071872904     -1.82092159424561
  H           0.89954175471016     -2.39720530911107      0.37988768933808
  H           0.05466803619173      0.58522649816496     -1.69428943748820
  H           1.09893509475047     -1.01797040616440     -0.78767530836057
  H          -1.45974172256406      1.46215929756803      0.85638922903718
  H          -0.14926100199768     -0.26321366312343      1.94747281108932
  H           0.01896318686868      2.18337715355032      0.09162836465347
  C           1.78931624221308      0.32680173303474      1.24195538161624
  O           2.41040218303336     -0.33808143003237      2.02816208326988
  O           2.44078368254994      1.06298465889675      0.31185563443998
  H           1.82665070285699      1.57370846922472     -0.23084313716093
