19
Coordinates from ORCA-job NEB E -44.475273880620
  C           0.51592099041334     -0.38915612151579     -0.80342352901960
  C          -0.91710975799103     -0.61116171531501     -0.40923593665082
  H           1.11478680852401     -1.20090780600775     -0.37041718688973
  H           0.62108563207435     -0.42142713525226     -1.88521581267736
  C          -1.81389500195792     -1.26677012306950     -1.38139728065529
  C           0.93852732143097      0.94456512601773     -0.22129514144182
  C          -0.04345862460963      1.30079756510697      0.83140121150914
  C          -0.55637328025322      0.17712247078808      1.66564503749816
  O          -1.27691819709760     -0.72631949538855      0.86986888009453
  N           2.25552941752185      0.90955142179622      0.52198263570699
  H           1.03608792646380      1.72325548919043     -0.97815024862653
  H           0.14303925007696      2.22706047322613      1.35862653141609
  H          -1.23314051488887      0.50077924251352      2.45810903886542
  H           0.30326927144054     -0.33977849777956      2.13047789574966
  Cl         -1.97508210575268     -0.23111680895302     -2.82704457680097
  Cl         -1.09994255812847     -2.84927917751791     -1.94977298349402
  Cl         -3.40811641237650     -1.58904291004682     -0.71169080343089
  O           2.48986270585048     -0.08465556106811      1.17810605979747
  O           2.90592712925960      1.92648356327518      0.52342620904959
