19
Coordinates from ORCA-job NEB_product E -44.532415315720
  C           2.99903741739103      1.98474936857907     -1.15826719014864
  C           1.62286300572921      1.40437871159331     -0.97416671816474
  H           3.72995138270877      1.26009304916359     -0.78704580540545
  H           3.20296064450978      2.20256670956803     -2.20571868021298
  C           0.71678777385419      1.50662286596347     -2.21961870177174
  C           3.13131196551882      3.26020730207534     -0.31371516408876
  C           2.80342670710908      3.02857194159203      1.13394723578675
  C           1.92855467893828      3.75382647902323      1.80388247359124
  O           1.21688353592742      0.92108592737169      0.03899130540676
  N           4.56131806729455      3.71129304503002     -0.34380569105088
  H           2.53408538346484      4.08062181481650     -0.72073929569289
  H           3.34759676793692      2.22116298646117      1.60255926229089
  H           1.38331419181639      4.56105455167503      1.34338591049699
  H           1.71755142674016      3.56115063150326      2.84051151754101
  Cl          0.60314180038389      3.21834690763493     -2.68896762904541
  Cl          1.46530495242062      0.57684720562236     -3.54022909413212
  Cl         -0.89698190716019      0.87644831960191     -1.88570084551950
  O           5.41210099885713      2.86250554643138     -0.28618019799250
  O           4.74299120655912      4.89926663629369     -0.38332269188802
