19
Coordinates from ORCA-job NEB_reactant E -44.524902583870
  C           2.63770297011701      0.85626411156735     -0.71160267825610
  C           1.55605237949203      1.60114150621055     -0.88900432511695
  H           3.28886448476627      0.97902784298679      0.13316101256521
  H           2.90448497792757      0.09615208902876     -1.41850264322207
  C           0.64369217570308      1.49691188163881     -2.08578143347509
  C           3.48983669915852      4.11659587385594     -0.27980200924545
  C           3.06699690867383      3.63605345078380      0.88281969786113
  C           1.79067666101847      2.89373509510804      1.09650009608665
  O           1.08207071934991      2.58914957161442     -0.08056396683729
  N           4.73142114627501      4.83092488597248     -0.37123529039614
  H           2.96600335478433      4.03078141953055     -1.21938004319232
  H           3.67151549878995      3.79757790453243      1.76735801582053
  H           1.10996084129104      3.52799474432188      1.67694828410720
  H           1.98284798907211      1.98501138688900      1.68419382565487
  Cl          0.78723592669419      3.01056273612090     -3.02706760623750
  Cl          1.02685415329726      0.14359954050854     -3.14442507714162
  Cl         -1.04288446315184      1.33063450009533     -1.54122679316391
  O           5.39994578205411      4.94885848495027      0.63275602252386
  O           5.02522179468716      5.26732297428417     -1.46104508833500
