30
Coordinates from ORCA-job R E -37.980801573620
  C          -1.83764086433422     -0.62966416224447     -3.17416669021905
  C          -0.24903100492679     -2.75045531474281     -1.73954724634036
  C          -1.28805366633802     -2.07825909674831     -1.25289250882657
  C          -1.98672263547239     -0.98538453922370     -1.90013051816202
  C          -1.14151838446882      1.95880086495091     -0.38866361280785
  C          -0.37677047534554      1.10992629317699      0.29414278393751
  H          -1.66309373426068     -2.33212332157531     -0.27011950912922
  H          -2.67360192923281     -0.42906508194154     -1.27894580950850
  Cl         -2.68585985909439      0.69297074404964     -3.86260590058200
  H           0.20987165184605     -3.55067851391402     -1.18450535046291
  H          -1.19185822511646     -1.13495270690917     -3.87437929330199
  H           0.18130068535274     -2.52960089856549     -2.70093806107983
  H          -2.16529529571332      2.10890406253817     -0.09870656827022
  H          -0.82062888338886      0.56172050639898      1.11681798959779
  H          -0.80286611519739      2.53619989486412     -1.22888568519910
  N           0.96701543176830      0.85274885202855      0.16065964559880
  C           1.70186745882150      1.45768003312391     -0.93590794797643
  C           3.17989327639731      1.64204722980963     -0.58892541450072
  C           1.54388079446108      0.67876638432873     -2.24670418926211
  C           1.45615459203695     -0.39990827437078      0.68374957044558
  H           1.26951436194680      2.45450666204848     -1.06622338683888
  H           3.71741612269312      0.69747924946167     -0.61838428030029
  H           3.28332713711322      2.08082504117572      0.40049558858764
  H           3.63792726061438      2.31186706566429     -1.31230935819652
  H           2.02662377067786     -0.29315442926773     -2.17279871963869
  H           1.99757527495459      1.22875265514589     -3.06685773898909
  H           0.48857400402895      0.52848352133511     -2.46004752153233
  H           0.87976257180819     -0.66886182483812      1.56759965865886
  H           2.49957777252577     -0.29934770828714      0.97938618849225
  H           1.37007890584286     -1.21922318747222     -0.04155611419374
