20
Coordinates from ORCA-job NEB E -35.799789957450
  C           0.75650486260153     -0.64398521883738     -0.71397963341497
  C          -0.55610625203313     -1.10346737439246     -0.76099085956021
  H           1.45591471642213     -1.21981140699174     -0.12871885137228
  H           1.18040434016819     -0.23189106472538     -1.62063992549139
  C          -1.45888521775711     -0.75843487961289     -1.89657569140791
  C           0.63740536720098      0.83271398597351      0.54701883855125
  C           0.00666571519460      0.20241316794519      1.61091639084489
  C          -1.29745038634356     -0.37671279513913      1.41042003459447
  O          -1.14409812314489     -1.50604626205406      0.34619385805000
  C           2.04166285492220      1.34519314938089      0.70918055170468
  H           0.02541027709014      1.46681627597134     -0.08717489558431
  H           0.61524486477243     -0.19983651676932      2.40885255016498
  H          -2.03515259149747      0.29445894229318      0.96964680849942
  H          -1.70783631573885     -0.91023612091556      2.26120402259828
  Br         -0.68171472408734     -1.25415971271393     -3.60970656056803
  Br         -3.16617845233063     -1.64035768861995     -1.68838364555312
  Br         -1.84756636218876      1.23753048156885     -2.02066347781805
  H           2.52581153955136      1.47481220104054     -0.25499540088153
  H           2.64008938513245      0.67337426970966      1.31959459509245
  H           2.00987450206572      2.31762656688866      1.19880129155138
