20
Coordinates from ORCA-job NEB_reactant E -35.824780877240
  C           1.49516151049702      0.15672679579453     -0.00032073303569
  C           1.62532204808390      1.45007631353839     -0.26417122991237
  H           1.85076956609502     -0.26955997354045      0.91845584722470
  H           1.02930639022678     -0.51862875857927     -0.69175030146482
  C           1.18237042591321      2.11267793265513     -1.53276804208982
  C           3.21354984481731      4.49152804095797      1.99135664819993
  C           3.29011330311566      3.25256349644447      2.44492158666290
  C           2.73532194528858      2.04209640394525      1.75605660872943
  O           2.19027307819006      2.40774368186685      0.50507920019064
  C           3.77059771000803      5.68027384659045      2.69420209051496
  H           2.72064185001435      4.69229312593241      1.05098719889774
  H           3.77616615061147      3.02802024070707      3.38466613056263
  H           1.95353363650055      1.58428628969897      2.38176229375808
  H           3.53306924539597      1.29813877915276      1.60887605801754
  Br          0.12822448421075      1.00749392464768     -2.70430612424687
  Br          0.13976931641744      3.70195031025986     -1.08967087214027
  Br          2.78168135296758      2.70060395261286     -2.51073283034382
  H           4.50424115956489      6.17753148137469      2.06080708606389
  H           4.24501305090011      5.39780489725796      3.63061433846272
  H           2.97627393118131      6.39667921868239      2.90003504594850
