20
Coordinates from ORCA-job NEB_product E -35.835510159160
  C           2.26691243603479      2.30963536968948      0.39168493371060
  C           1.18438843356042      3.03854916890472     -0.33887125020731
  H           1.87481149903728      1.31072975668417      0.61321869566290
  H           3.16160753859690      2.19082780526602     -0.22248545200410
  C           1.32797500970515      3.06047485993557     -1.86713586501971
  C           2.61607257932876      3.01091468143356      1.71875088159177
  C           3.51621714359564      2.12306696069355      2.52598996698813
  C           3.21016021242662      1.63686158603467      3.71307919077434
  O           0.24786655804890      3.59077750169293      0.15981301135517
  C           3.30215248683980      4.34967993716129      1.44517036843765
  H           1.68644066150291      3.18777417255338      2.26775903332758
  H           4.47221984157413      1.90204001183124      2.06939889727855
  H           2.26516432128800      1.84908150334129      4.18599835311919
  H           3.88937693118528      1.01066951584819      4.26543059109893
  Br          1.62514243392934      1.26796550603864     -2.56692705157698
  Br         -0.25512901873714      3.82315667608327     -2.67804165118714
  Br          2.87392118440563      4.17689494724080     -2.29226266141783
  H           4.20417298130126      4.20805964862322      0.85264649753703
  H           3.57899788073739      4.82185524939184      2.38425402423032
  H           2.63652888563893      5.02298514155218      0.90942948630092
