18
Coordinates from ORCA-job NEB E -30.592339108300
  C           0.30045366218840      0.24461338239533     -0.16787883810603
  C           0.58557511726352     -1.06656718052728      0.53992833809660
  F           2.08600460556404      1.97256818905011      0.84091238880934
  H           1.08206364892510      0.98718810397930      0.09964799215161
  C           1.38613220767355     -0.90900614171526      1.79119568959264
  C          -0.23904712952779      0.11295031853114     -1.52508731335508
  C          -1.14550353047378      0.68717725910953     -0.30948777315696
  C          -2.19956192290666     -0.11397790827274      0.08895693419221
  O           0.22755612252795     -2.12002827071333      0.09441394662215
  C          -0.10519958006639      1.07421303068707     -2.55146152138931
  H          -0.40331214695178     -0.90865994809168     -1.86529331352272
  H          -1.30479440227854      1.75702092557293     -0.38807481379112
  H          -2.07032979856080     -1.17381277834641      0.22984713314694
  H          -3.17700796678200      0.28542179428826      0.29089842489791
  H           1.28969234800590      0.08930698015733      2.21382217609396
  H           2.43263460987165     -1.04537899354998      1.50072814430099
  H           1.14952446410995     -1.69183515974791      2.51017694750676
  N           0.10511969141769      1.81880639719359     -3.39324454208987
