18
Coordinates from ORCA-job NEB_reactant E -30.687224710160
  C           1.68494239281473     -0.36213886138546      0.50977093290755
  C           1.36918009430763     -1.13743757154368     -0.52517270837454
  F           0.81816003769448      0.52260381645385      1.04215975459146
  H           2.63254009945572     -0.37486936724345      1.01973426334432
  C           2.36258399482544     -2.10878113015140     -1.08616492437733
  C           0.85173681049284     -1.59663449283022     -4.57010333186452
  C           0.54183279058578     -0.98279037213417     -3.42897888632648
  C          -0.16966303832405     -1.64520396699210     -2.28984818682950
  O           0.10375367197065     -1.05584863742573     -1.04198848828442
  C           1.50168627325497     -0.93589865291257     -5.63024273038917
  H           0.61733089468266     -2.63977854398589     -4.74257567131411
  H           0.78434798524193      0.06129520942361     -3.27883277329974
  H           0.02549895560541     -2.72627663154301     -2.28086639869004
  H          -1.25022884694405     -1.49808334831317     -2.41582114030318
  H           2.58148325528772     -1.88497593539724     -2.13004024292387
  H           1.97848342952975     -3.12682012918040     -1.02536283401366
  H           3.28549853599000     -2.05337543971607     -0.51849590796074
  N           2.04043266352839     -0.41078594512290     -6.49537072589200
