18
Coordinates from ORCA-job NEB_product E -30.702637543020
  C           1.35363916283507     -1.04362010127951     -1.35727698590016
  C           2.35485453906925     -2.10348594420074     -0.88304146971375
  F           1.98078081376013      0.14016363037755     -1.65730555729886
  H           0.63176242575496     -0.82752109906728     -0.55856695251629
  C           3.79381666201923     -1.75661989574237     -1.07994491560741
  C           0.59388349140055     -1.57509236684693     -2.59703121866298
  C          -0.43970861127543     -0.58533671383907     -3.06916004157393
  C          -1.72702650487966     -0.86044275888797     -3.14107468346218
  O           1.94823616070910     -3.13896660308195     -0.42412496308173
  C           1.53918096289745     -1.83029009944857     -3.66312336674166
  H           0.12396830005513     -2.52417466813660     -2.31374902364637
  H          -0.04871470616081      0.38377781954809     -3.34578270451271
  H          -2.12232684923209     -1.82608556090669     -2.86992485504565
  H          -2.44019580691239     -0.12888888022943     -3.47866349208667
  H           4.02097053080012     -0.81891934119646     -0.57594086314722
  H           3.97791658308596     -1.60727631219761     -2.14400185046807
  H           4.42677877535930     -2.55366786066049     -0.70123373427231
  N           2.28878407071413     -2.01945324420396     -4.50395332226201
