17
Coordinates from ORCA-job NEB E -33.672263498030
  C          -0.67540400306072      0.93636185709343     -0.99717819173347
  C          -0.59007616813062     -0.18890591553144     -1.80292732209969
  I           0.82801946707219      2.39104599461121     -1.25253445252255
  H          -1.65061437598367      1.37310029691142     -0.82939568087125
  F          -1.78114444212541     -0.88580642837749     -1.90127611327523
  C          -0.25526371946578     -0.05031439849259      0.74945181097179
  C           0.94234870776384     -0.67084929997417      0.42013253239068
  C           0.95373726460298     -1.67094664502001     -0.57231624588774
  O           0.45247194524174     -0.84896931683622     -2.00416568190226
  C          -0.30403703572406      0.98946202413891      1.83869566709710
  H          -1.16973246135130     -0.63434889984791      0.70761533692343
  H           1.86232394449030     -0.14841384345824      0.64182830623755
  H           0.16282855356111     -2.41290171029556     -0.55727957343505
  H           1.91142917826800     -2.05648076761920     -0.89134723553370
  F           0.91442500663356      1.57125590784456      2.04936574209935
  H          -0.59101528058189      0.50949778071556      2.78358644271147
  H          -1.01029658121026      1.79721336413772      1.61774465882959
