17
Coordinates from ORCA-job NEB_product E -33.723258802770
  C           2.36049958772623      0.28131915858115      2.02519985613492
  C           1.29352950640730      1.26043680093371      2.38668484410401
  I           1.47753772546484     -0.79055561470750      0.34953890137415
  H           3.23383088738552      0.79018766901485      1.61446048461115
  F           1.39486004011736      2.38423725888780      1.62570635564242
  C           2.72250805262351     -0.66765522461096      3.16307929989443
  C           3.66249221803049     -1.74139470568066      2.69260798116776
  C           3.41612577818415     -3.03228281078749      2.80236267121991
  O           0.43232950497750      1.16771309486069      3.18592985536788
  C           3.38314436385626      0.14284467349115      4.28977794833355
  H           1.81018112456053     -1.12279318133961      3.56340062456237
  H           4.58670735095482     -1.38514368672280      2.25611081192916
  H           2.50469071020418     -3.40128908026897      3.24227820688867
  H           4.11700205360443     -3.77261925740916      2.45933084236659
  F           3.64751158300573     -0.67843964104947      5.34953411817007
  H           2.72233455159325      0.93408536664468      4.65936352535730
  H           4.34201496130390      0.56704918016259      3.96973367287565
