20
Coordinates from ORCA-job NEB E -41.527840275650
  C           0.36904492326053     -1.10758403796813      0.05668395715090
  C          -1.11071786728289     -0.83352105545705      0.15646442156872
  O           0.87296371894194     -1.59245309867435      1.28562206024597
  H           0.50250121682672     -1.95818000044169     -0.62083470620957
  N          -1.83150556512443     -1.85721214609143      0.68044272768367
  C           1.01691347985541      0.10851024897968     -0.63785959717705
  C          -0.09608487223176      0.59333162020184     -1.49711505782643
  C          -1.23645867496160      1.24556548414218     -0.80496827652264
  O          -1.77861257297747      0.31591383770671      0.12684550567320
  C           1.64678854355869      1.11827655898055      0.35239465203955
  H           1.85207470368812     -0.22090815443661     -1.26150114143372
  H           0.19026497722856      1.05081205583328     -2.43251134818481
  H          -2.04361210662346      1.47119173995659     -1.50840955228079
  H          -1.00866036439947      2.17020740174677     -0.25489263356523
  H           0.91352605182496     -0.87281324139369      1.93063597906580
  H          -2.75093502088402     -1.64618017545195      1.03466403456649
  H          -1.31822639021676     -2.60995139709580      1.11263344206546
  Cl          1.96663937266315      2.65562377763293     -0.47433203677521
  Cl          0.62569275434896      1.46701364335534      1.77682719223179
  Cl          3.21840369250485      0.50235693847484      0.97921037768389
