20
Coordinates from ORCA-job NEB_reactant E -41.569069820130
  C           2.35072768206508      0.49336076015322     -0.33474990560374
  C           1.62281325851035      0.30406782212925     -1.43934471722930
  O           2.66056327357044      1.72850325583746      0.21866216565927
  H           2.70652925565703     -0.37520707921285      0.20104262743340
  N           1.33803694226747     -0.97995404894088     -1.91559111719033
  C           4.06015000499812      3.17661792516604     -2.09205678103200
  C           3.12373841156444      2.44309137138455     -2.67195798457914
  C           1.67333481108411      2.52212371668673     -2.30723374511690
  O           1.07537267748569      1.24410120315613     -2.27643942460827
  C           5.51491066725878      3.10391040864855     -2.37148526325017
  H           3.80617120857357      3.88651490071689     -1.31716501762952
  H           3.36545418731245      1.71178852713117     -3.43041361008429
  H           1.12392284698279      3.06051626939126     -3.08764248439946
  H           1.54473719558056      3.03725395809798     -1.34984565693037
  H           3.52879283441632      1.67192689355807      0.63052366002586
  H           0.55684518309335     -0.96428856404578     -2.55654231001976
  H           1.22640179945289     -1.67679633811721     -1.19483667797947
  Cl          6.15418831582256      4.73671081711576     -2.72381055701010
  Cl          6.34703821731663      2.49834295039833     -0.90242921038669
  Cl          5.93997122698736      2.04021525074535     -3.71658399006901
