21
Coordinates from ORCA-job NEB E -40.936943263170
  C          -0.23304648601993      0.22857254832498      1.25994518483615
  C          -0.56523865743301     -1.13902396016325      1.01394689753719
  N          -1.28637258184003      1.08690744692437      1.74643215946974
  H           0.69088389433582      0.42573049908114      1.79778224189062
  C           0.49269923072786     -2.06961772216910      1.29595304690602
  C           0.04799507889293      0.95884255699451     -0.57457582127436
  C          -0.44293904789062     -0.05264398500950     -1.43693308752388
  C          -1.73181078080544     -0.51737714168352     -1.25948991508253
  O          -1.56139713292115     -1.48278964041449      0.33238022169582
  O           1.32383589764287      1.38218098858506     -0.56306512062266
  H          -0.61012094066780      1.81049861309694     -0.41539617117243
  H           0.27431016185045     -0.70442365111627     -1.91786200095131
  H          -2.08974435792094     -1.33208316578845     -1.86850813077143
  H          -2.48952368061029      0.14593868033554     -0.86770573717651
  O          -1.00716630805781      1.74547199999170      2.72404716621786
  O          -2.35950996255276      1.08568133688030      1.18748192921285
  N           1.33138357618189     -2.81013582146329      1.54425812309590
  C           2.34558004721091      0.47266788904192     -0.93403521064461
  H           3.28066582332205      0.94420090409576     -0.63894183075220
  H           2.35205137796627      0.30407536250376     -2.01377510322072
  H           2.23746484858877     -0.48267373804811     -0.41193884166953
