21
Coordinates from ORCA-job NEB_product E -40.960080839130
  C           2.42948028127415      0.43998540631048     -1.26335799462961
  C           1.34890896653576     -0.59959507726584     -0.96271238617967
  N           2.49065222776355      1.42361747398894     -0.13346042973843
  H           3.41174620066847     -0.04284273962236     -1.31925492430707
  C           1.71123660851493     -1.41222185765446      0.18719806300026
  C           2.10176552047526      1.22389528386712     -2.56851057976905
  C           2.14511786085033      0.27466556751948     -3.73712535361654
  C           1.18077541817085      0.19265558690946     -4.63305922319904
  O           0.33652084329434     -0.73644726123161     -1.58545876070850
  O           2.92531785594409      2.35799923215182     -2.69708559106306
  H           1.09156368877185      1.63828587537431     -2.46299163299582
  H           3.03140192557295     -0.34159040431798     -3.81401001769713
  H           1.23969725395913     -0.48727477322164     -5.46532059001975
  H           0.29272755075692      0.79737598808889     -4.56498013353502
  O           3.57043249982051      1.61375058202280      0.35558041158422
  O           1.45332541227776      1.94018979133998      0.18214093413132
  N           2.02824192706764     -2.03819655326488      1.09028158382769
  C           4.25901107240902      2.15175512299929     -3.11553700263210
  H           4.71348716732546      3.13996521739093     -3.11024977463618
  H           4.30300219978211      1.74031146817140     -4.12786532979415
  H           4.81458751876487      1.50561607044386     -2.42892126802238
