21
Coordinates from ORCA-job NEB_reactant E -40.980506397890
  C           1.87198381349622      0.24125933297318     -0.30291615414574
  C           1.52931797836249     -0.83009569569633     -1.06353021139309
  N           1.55214090400355      1.60142350202502     -0.52494495512302
  H           2.45928019631820      0.07956486998490      0.58938957754619
  C           1.85408095368100     -2.10373151049901     -0.48472053639328
  C           2.52155275314079      2.05978819489428     -3.41832239964851
  C           2.32160152095486      0.74328989472535     -3.39342600961695
  C           0.96811455868304      0.13678908455566     -3.19602391282392
  O           0.99785872426483     -0.95103587586356     -2.26789482610575
  O           3.66358792096825      2.72552984995376     -3.63065597271793
  H           1.70436237858328      2.75525734436270     -3.27216815264405
  H           3.12454642880129      0.03484167023031     -3.53552995564133
  H           0.60941124950830     -0.34236316386624     -4.11269317807540
  H           0.24694258004641      0.89766578810146     -2.87564263502490
  O           2.33209048903667      2.42585761077389     -0.09384372592422
  O           0.49762853261590      1.86672186066206     -1.07774653610182
  N           2.11524066171205     -3.11198307656058     -0.01318240668452
  C           4.84407250806738      1.97891136159138     -3.82499405710908
  H           5.63645911376808      2.70737903040642     -3.98324874670502
  H           4.76126181309150      1.32977826170808     -4.70196059972222
  H           5.07726492089592      1.37275166553727     -2.94444460594547
