14
Coordinates from ORCA-job NEB E -29.860582077420
  C           1.26415947221141      0.64762796823790     -0.41065463950221
  C           0.41725330489200      1.34787248103564      0.43841924899724
  I           1.06413747593294      1.03161811215007     -2.49013433300826
  H           2.30490079498604      0.52876501359121     -0.13869928858901
  Br          1.03916541174971      1.40053231019752      2.31066128456281
  C           0.47194073151821     -1.15045954496374     -0.14308512029068
  C          -0.87618121111241     -0.93255010321724     -0.40076420619367
  C          -1.58610856536354     -0.04448034666048      0.44305617927981
  O          -0.82726288516011      1.43280544798099      0.26441865144157
  F           1.16752216842223     -1.90627014898322     -1.00377960230958
  H           0.84279293415814     -1.29151185959986      0.87015399644651
  H          -1.22194071583407     -1.09141569928668     -1.41194598943519
  H          -1.45937016570191     -0.16929963507424      1.51544813964563
  H          -2.60100875069864      0.19676600459212      0.15690567895502
