14
Coordinates from ORCA-job NEB_product E -29.902930689990
  C           1.70727646269983     -2.12297621601439     -0.10607958361785
  C           1.18400011814798     -0.96501320728300      0.66505493314295
  I           1.24794778616900     -1.83454825151494     -2.19601812353479
  H           2.79587329682671     -2.17680802687710     -0.02862555173965
  Br          1.95267210541420     -0.93158906129837      2.48088187460687
  C           1.11694272644369     -3.44532839505444      0.42641714516534
  C          -0.37278212336782     -3.50987511106142      0.26978210969247
  C          -1.21526773058773     -3.15292909242067      1.21964567144283
  O           0.41185269810391     -0.13304947142854      0.35749510375339
  F           1.71418494638205     -4.47207513917478     -0.26119108583864
  H           1.41447520685388     -3.56575157325058      1.47825656249293
  H          -0.71118941507513     -3.86036134447475     -0.69450251881249
  H          -0.88140084690687     -2.81441351121989      2.18773163278855
  H          -2.27898523110371     -3.18538159892711      1.06585183045807
