21
Coordinates from ORCA-job NEB_product E -50.589738199740
  C           2.97806456119911     -1.53553129392200     -1.40534623934907
  C           1.72196910164241     -2.33141979753035     -1.04662803633290
  O           2.70243991662241     -0.16629148992962     -1.28230182093176
  H           3.81914758462617     -1.82133589236707     -0.75344992126031
  C           1.75280391950320     -3.10405364764920      0.27199655466424
  C           3.38501937466374     -1.73022144907269     -2.88868374205783
  C           2.22801283332541     -1.47675538031224     -3.81687925113485
  C           2.03308989212218     -0.31466595879039     -4.40979103678140
  O           0.68201182407076     -2.23447559309469     -1.62967350454143
  C           4.00858186477118     -3.08512315536675     -3.16259887412288
  H           4.14845800282966     -0.96174358835322     -3.06996829865074
  H           1.53916011014682     -2.29672294949580     -3.96603368230369
  H           1.18838918496363     -0.15431578101741     -5.05540236795547
  H           2.69755536649843      0.51947460986896     -4.26007984750783
  H           2.50648203985617      0.07044953291285     -0.36677161878577
  Br          1.57106681793275     -1.65243055307380      1.59789409167163
  Br          0.21994717392333     -4.27004349910660      0.37652525531595
  Br          3.36397601241032     -4.08642674740414      0.67772406021167
  Br          4.45198282760043     -3.22261865871124     -5.05617473698426
  Br          5.66524454785482     -3.34200223848717     -2.15272174978802
  Br          2.79219704343707     -4.54914646909744     -2.72843523337526
