23
Coordinates from ORCA-job NEB E -44.407173445510
  C           0.51917509378248      0.08235576591914      0.97605179524405
  C          -0.77488692519523     -0.25754336561834      0.50047631957823
  C           0.69898281941064      1.08005531132793      2.08263248500804
  H           1.13717316895583     -0.78653609154270      1.19840274037808
  C          -1.09308140713758     -1.71678666101248      0.27299815011037
  C           1.33013888137566      0.96083438375575     -0.57916576682524
  C           0.35394431684495      1.07620673008635     -1.57535200600779
  C          -0.87069880121280      1.65859040997274     -1.17129245078853
  O          -1.53593340441982      0.61392546326599     -0.05090052712018
  Cl          2.73714978637465      0.00490441522746     -0.94708315832852
  H           1.60803245824590      1.86184684581847     -0.04526622787264
  H           0.32758163209506      0.31708751252080     -2.34488745879709
  H          -1.66832583191732      1.68471196357922     -1.90322873317386
  H          -0.80976020801947      2.56562139187814     -0.58163676238195
  Cl         -0.17422698820010      2.60190119168835      1.89848658511105
  Cl          0.09315830907272      0.31146923818639      3.60080339214650
  Cl          2.42698599288741      1.44740198541327      2.35965816304387
  C          -0.46032734294760     -2.24653289680480     -1.01681590732368
  H          -2.17738299747347     -1.81463667953882      0.20476206488795
  H          -0.73981037185646     -2.29911157397451      1.12425847180503
  H          -0.87049436859727     -1.72808653069879     -1.87930409584964
  H          -0.67543063474771     -3.30674251195631     -1.11992326030198
  H           0.61803682267954     -2.11093629749325     -1.00367381254207
