23
Coordinates from ORCA-job NEB_product E -44.460684510060
  C           2.45121939733792      0.23825425698411     -1.67046561685081
  C           1.10102926014066     -0.31457181109528     -2.18677375479897
  C           2.24001876359301      0.88291836273679     -0.30130645544446
  H           3.14198398903223     -0.59807266943224     -1.52424620226633
  C           0.96070328250247     -1.81198589816016     -2.12195239110805
  C           3.10494002362514      1.21672170285565     -2.66472506638484
  C           2.33645285924657      2.45118093043406     -2.98848325947565
  C           2.86763697242163      3.65838486896214     -2.91576067109957
  O           0.23726017968000      0.41035733020407     -2.59380746470472
  Cl          3.35406945361678      0.31021058891655     -4.20549503874634
  H           4.10877907940755      1.47007245455344     -2.31295493692723
  H           1.32415759384920      2.29760841995332     -3.33120981445436
  H           2.30504463507462      4.53679057922320     -3.17789714807409
  H           3.88029068624887      3.81726731005902     -2.58149223716314
  Cl          1.04252969930811      2.18376463737194     -0.31941570957708
  Cl          1.69073087143020     -0.35433578834395      0.86121537470525
  Cl          3.77668025491289      1.54380665665453      0.32359545397941
  C           1.76850438655079     -2.50246622431042     -3.22404661295082
  H          -0.09606528303971     -2.05300924206785     -2.24717591929830
  H           1.29633286268343     -2.16616950084058     -1.14634131282961
  H           1.45783550738463     -2.14342490786836     -4.20147855376049
  H           1.59811822627267     -3.57477923085528     -3.17829044781439
  H           2.83324729872032     -2.31732282593470     -3.11299221495541
