23
Coordinates from ORCA-job P E -35.440072380830
  C          -1.08812068990151      0.63579728186265     -2.26152737903656
  C          -0.47401001847423     -1.66388239435890     -0.47354204867850
  C          -1.31975688175591     -1.76668217080061     -1.70310045187862
  C          -1.60275044040252     -0.75215598616575     -2.50122042939050
  C          -0.71151669029048      0.81638120712519     -0.78374019230282
  C           0.22996773588824     -0.31119168008349     -0.34948116540721
  H          -1.70374761931855     -2.75381026219399     -1.91894280922202
  H          -2.20553894054515     -0.89302079150703     -3.38604225790428
  C          -2.09705463595945      1.70684554752492     -2.62273933055115
  H          -1.09669216998793     -1.83623060953176      0.40886006734413
  H          -0.19750703373167      0.80734441674692     -2.87906646060057
  H           0.29138317114373     -2.44262229990706     -0.49632381279303
  H          -1.61311010266318      0.77555456950139     -0.17037669643006
  H           0.51388538545567     -0.14830960485425      0.70561052146103
  H          -0.23537609226425      1.78962946804473     -0.63825564989600
  O           1.39709510762984     -0.36089046163403     -1.14064902578339
  O          -1.81925233647556      2.78199272677308     -3.08684620024228
  O          -3.34424400138067      1.33221117992256     -2.32079915514750
  C          -4.36526809728693      2.28462983137102     -2.58054311583815
  H          -5.30347095490562      1.80571639177814     -2.31283573722092
  H          -4.36331345512405      2.56454775746094     -3.63588903532084
  H          -4.20751961881714      3.18317454975524     -1.98036896454913
  H           1.79197837916733      0.51739133317009     -1.17244067061165
