19
Coordinates from ORCA-job NEB E -46.372679336080
  C           0.76951835481880     -0.74061348724874      0.62471963346846
  C          -0.59060308112089     -0.65291720192744      0.97743985274540
  I           2.12884028912929      0.11890067981674      2.02213130876582
  H           1.14291718295771     -1.69693156424729      0.27245919860880
  C          -1.56353563493274     -1.72462003420269      0.60542081849294
  C           0.77444877454061      0.40955470116141     -0.88998089895600
  C           0.23776843658511      1.60605147867358     -0.40186681417676
  C          -1.08421637065531      1.58082469052688      0.14488248543565
  O          -1.08469198457852      0.50532245692355      1.30503482941379
  N           2.16428001012048      0.45763645584434     -1.33469092222495
  H           0.19407275983392     -0.22173798756239     -1.55969357183919
  H           0.93349226784569      2.37129101143106     -0.08393095449987
  H          -1.86156503172217      1.19733698235998     -0.51566637394303
  H          -1.39821026162895      2.48438574283335      0.65595366688276
  Br         -0.90002523613866     -3.50276969255948      1.01719792541217
  Br         -3.23517165516363     -1.42041500434604      1.53719256196541
  Br         -1.99374277265649     -1.70192143399370     -1.38345675481717
  O           2.90375922949516      1.21222783612010     -0.75302563793929
  O           2.46266472327059     -0.28160562960322     -2.24012035279495
