19
Coordinates from ORCA-job NEB_product E -46.414113385150
  C           2.20573477365853      0.38927259145546     -2.14548708288209
  C           1.18041383032388     -0.46863851218566     -2.83587192710714
  I           1.27597214523663      0.86611385699689     -0.24745565485577
  H           3.13316487846752     -0.13991423262759     -1.92507325458042
  C           1.22528755203898     -1.96926273411055     -2.60096800948122
  C           2.45602368480400      1.67183508802249     -2.92340614069935
  C           3.48539036684325      2.55302822851552     -2.27778831806761
  C           3.33344857809568      3.85595384135434     -2.13545644161812
  O           0.33682779654341     -0.01396204952010     -3.55645700000175
  N           2.97006599144318      1.28879025227775     -4.28354107244174
  H           1.52553806059633      2.22459923652042     -3.09367532302150
  H           4.38424012334384      2.04927536455096     -1.94866292185724
  H           2.44620253027903      4.36788201405812     -2.46816120589512
  H           4.09524216484179      4.46038885467123     -1.67637718470048
  Br          2.17329760843513     -2.55811549369231     -1.02953646941414
  Br         -0.59272105884680     -2.64771477386629     -2.53612230365952
  Br          2.13838959950649     -2.69095518903342     -4.18479822790017
  O           3.28413916646834      0.13174775659229     -4.43119524113951
  O           3.04204220792080      2.15977590002044     -5.10186622067709
