19
Coordinates from ORCA-job NEB_reactant E -46.405199014870
  C           1.54245301570069      0.00668977094781     -0.04991912445788
  C           1.49352116742260     -0.00097474380477     -1.37831705715050
  I           1.80477308966927      1.67195844051849      1.19427468442162
  H           1.39913159190224     -0.89823242693690      0.51303381750487
  C           1.22645259804952     -1.25977427875211     -2.15897563715320
  C           2.83811049792960      1.90097633327367     -4.59994625164848
  C           3.25159713936696      2.34896466014607     -3.42221504035209
  C           2.67819780625639      1.97460925986750     -2.09986293064597
  O           1.66074551856078      1.00151197561580     -2.27218226969121
  N           3.47124649679563      2.33986043502487     -5.81305188538022
  H           2.02672117352189      1.20879996576549     -4.75995194845141
  H           4.07227817899303      3.05498627651809     -3.38637298142191
  H           2.26467595575147      2.87726853846423     -1.62958900826822
  H           3.48094514813460      1.59023772855190     -1.45841289567997
  Br          0.59879962946195     -2.77164749660467     -1.14214480091645
  Br         -0.08340194000457     -0.86493699579788     -3.54807711229907
  Br          2.92518885909253     -1.75709173007695     -3.04725764501187
  O           4.38670168280612      3.12829739259697     -5.72757458454724
  O           3.03536239058931      1.88229689468239     -6.84435732885079
