19
Coordinates from ORCA-job NEB E -48.049816831200
  C           0.30194922459005      1.02767452876230     -0.72738179129250
  C          -0.46776722731265      0.80557552810803      0.44802572398777
  N          -0.35953965520019      2.02082080057429     -1.34697716274039
  H           1.17502015354442      0.51843508038722     -1.07999438963699
  C          -0.59704528183616      1.83525944840238      1.56473674251090
  C           1.39028581254415     -2.44711555313196     -0.89682616130567
  C           0.66151596389117     -2.07529563353355      0.14236482617457
  C          -0.71599164248025     -1.49828205647424      0.01619231933171
  O          -0.87692144242998     -0.36040818366315      0.86649358932786
  Br          3.10522855510465     -3.20224377879762     -0.71486039630901
  H           1.06168264215935     -2.36740909532709     -1.92199847967034
  H           1.03171073262021     -2.17457780066425      1.15262155976435
  H          -1.45909180098634     -2.21549835072205      0.37915173288894
  H          -0.93702812551080     -1.22173569420279     -1.02054077735646
  O          -0.01629845731682      2.70110292602673     -2.27867917254414
  O          -1.51379698219107      2.10881041121130     -0.77907638537328
  Cl          0.44666806306094      1.17372386104576      2.87119480294407
  Cl          0.02319649422778      3.43542737015285      1.16837297326905
  Cl         -2.25377702647845      1.93573619184586      2.15718044602955
