19
Coordinates from ORCA-job NEB_product E -48.094900190460
  C           2.54517841049656     -1.28990758841090      0.17589584983369
  C           1.25932956326649     -0.91553374460020      0.89902832679221
  N           2.61695063854360     -0.39326924036755     -1.04862688024320
  H           3.43341321496796     -1.08754987731572      0.77900079979156
  C           1.46717880408936     -0.20238351833766      2.24306216118078
  C           2.44473471507829     -2.75005017686512     -0.26766012531124
  C           2.19846328131104     -3.67270841175535      0.87670860025070
  C           1.14773078414441     -4.46916797291018      0.94098411076551
  O           0.17402519745798     -1.13360923274636      0.45616331295077
  Br          4.15329082896029     -3.24274881925895     -1.14906622875233
  H           1.67081225091518     -2.84173216952870     -1.03454203858468
  H           2.95140137558671     -3.66501715705776      1.65218864698032
  H           0.99443492307384     -5.12819944501490      1.77696151132420
  H           0.39884992111554     -4.48729297989199      0.16673625938700
  O           3.37122252361693      0.53253896292160     -0.96873852036674
  O           1.90219920957707     -0.67714603196202     -1.96414796733172
  Cl          2.46104007382285     -1.22774512969832      3.30006779068000
  Cl          2.32400269386179      1.32853776896487      1.90463608340566
  Cl         -0.08335840988589      0.12148476383519      3.01714830724751
