19
Coordinates from ORCA-job NEB_reactant E -48.095352469070
  C           2.20404977019749     -0.50703937032106      0.24204334825703
  C           1.46326553908101     -0.97572054911985      1.26779328514435
  N           2.28696108987204     -1.02634744413316     -1.07419947989860
  H           2.82582930417490      0.36271330235067      0.38794525007747
  C           1.45227198547710     -0.18511205275034      2.57044289351319
  C           3.12168774295203     -3.98180629137557     -0.49418585452133
  C           2.47688172405241     -3.62662274100201      0.60510015391174
  C           1.02535450892571     -3.25806246638866      0.62576418681829
  O           0.78251572882209     -2.09871810929046      1.42403985240420
  Br          4.93081573177484     -4.49503810291518     -0.47841974787195
  H           2.66697961143354     -4.02154547820279     -1.47233891995182
  H           2.98141798128981     -3.59257258732443      1.56144263117078
  H           0.44430049282713     -4.03432377131700      1.13402320249107
  H           0.63914061359121     -3.11785204309174     -0.39106486807028
  O           3.31828613724928     -0.82481576376926     -1.67673905300730
  O           1.31726912080402     -1.60043040217477     -1.53868544454154
  Cl          2.81997354980498     -0.79471575917200      3.55190156199713
  Cl          1.65044227774074      1.55218837504457      2.32619458015799
  Cl         -0.05754291007034     -0.46647874504695      3.45154242191960
