20
Coordinates from ORCA-job NEB_product E -51.814211949620
  C           1.52729594996886     -1.85449687925777     -1.39851726813295
  C           1.03251038739086     -1.27934807899617     -0.08605911819576
  C           1.58883545357065     -0.70786008869981     -2.41902198785237
  H           2.56230044014624     -2.20194499592364     -1.28621023274198
  I           1.62373808983482     -2.47543141059596      1.60742488933587
  C           0.61252725234920     -3.06677624050012     -1.71169216178695
  C          -0.84930912185095     -2.70397913904958     -1.63128647682329
  C          -1.68287327342226     -3.30156360127143     -0.80040242991663
  O           0.37307495357377     -0.31648834548583      0.06466147611845
  C           0.90151434553403     -3.81420874355986     -3.01659387393743
  H           0.82790471688408     -3.79400125746265     -0.91374425683233
  H          -1.19184797526616     -1.92817115765652     -2.29990845988267
  H          -1.36644414629321     -4.08111396948747     -0.12572323237606
  H          -2.72312773851599     -3.03168582574859     -0.76666971474350
  F           2.25030010518822      0.32896405666321     -1.88975581165935
  F           2.27444253348938     -1.06193420800387     -3.51124775328157
  F           0.40395197060643     -0.25726432197382     -2.82084444851769
  Br         -0.01050646384242     -5.54879439926317     -2.90326589174110
  Br          0.23578311076742     -2.94122500949767     -4.62396996142171
  Br          2.81342940988704     -4.19067638422928     -3.22567328561098
