20
Coordinates from ORCA-job NEB_reactant E -51.804418286930
  C           1.62292647514777      0.11817002884098     -0.04367776496859
  C           1.10590274619326     -1.10797804212489      0.06591712413362
  C           1.90817317394731      0.69777349086027     -1.39153509964624
  H           1.86578664492748      0.73044403377056      0.80426254426435
  I           0.70778142594231     -1.86339463132240      2.00825788357861
  C          -0.07339945249688     -4.79496766386128     -2.69020119645371
  C          -0.09086232281665     -3.51952094578308     -2.33872871512624
  C           0.12210118927561     -3.05378891206366     -0.93527366747061
  O           0.87542308854690     -1.85740586918573     -0.99654771571504
  C          -0.31576274578566     -5.32807948509742     -4.04842306636680
  H           0.11285160791344     -5.57199162886483     -1.95759963406450
  H          -0.26386449746919     -2.72433110307843     -3.05070168333617
  H           0.65102645927712     -3.81020527795064     -0.34126067083111
  H          -0.85578534426660     -2.85884112176892     -0.46912330350729
  F           2.88205198975064      0.04247502477316     -2.04954903186934
  F           0.83706990460121      0.67704034856705     -2.20574143954204
  F           2.29818574846529      1.97341470126262     -1.30257499965448
  Br         -1.88730221723813     -6.52408157915487     -3.99028482520382
  Br         -0.63708838426461     -3.98712976168711     -5.41064932630689
  Br          1.23888451034939     -6.40560160613140     -4.60436541191373
