22
Coordinates from ORCA-job NEB E -43.980767162820
  C           0.53985887872204      0.21561448418755      0.81499560520036
  C          -0.69684326050180     -0.41041214027988      1.05596042185179
  C           0.57401821198581      1.72889817702554      0.87535823494887
  H           1.41207120161630     -0.24443430847677      1.27156838031076
  C          -0.76056946764491     -1.83548052756966      1.55528574975473
  C           0.65628194359829     -0.20289794019843     -1.04538734160410
  C          -0.50047553615440      0.37354002717094     -1.58618486843384
  C          -1.75279821555923     -0.12019214048674     -1.12242927467021
  O          -1.76085057413969      0.07630023495838      0.48075820403717
  N           1.93007646702943      0.33548364484723     -1.49891045395968
  H           0.73670101150350     -1.28253572556992     -0.95102024726411
  H          -0.42569073582394      1.38215616083338     -1.96513683518544
  H          -1.89715796141201     -1.19654992875491     -1.18990972876753
  H          -2.63106257904875      0.43080298056521     -1.43627264005237
  F           0.90766699622845      2.08868614341120      2.15872321613642
  H          -0.41461698335232      2.15100166391644      0.67076281568620
  H           1.32756239085964      2.17934928393448      0.22267234337587
  F           0.45177422509427     -2.46357274412695      1.43409156820825
  H          -1.49344630439183     -2.41417958643566      0.97986187660705
  H          -1.03362100324058     -1.86316764136943      2.61675453631454
  O           2.84615022752588     -0.44446520968507     -1.58495428928559
  O           1.98497106710583      1.51605509210306     -1.75658727320914
