22
Coordinates from ORCA-job NEB_reactant E -44.007820379640
  C           1.76530103215065     -0.07513614987088     -0.29797310434494
  C           1.45228313175824     -1.28500413389439     -0.74702675167748
  C           1.98777078624956      1.22003485013938     -1.01653552112646
  H           1.86774543372449      0.02312794625086      0.77303073210170
  C           1.25205783945801     -2.44769857482014      0.20048200787256
  C           3.58066312310706     -0.12060905726920     -4.33000754110465
  C           3.02123564590365     -0.82246067746187     -3.35126043657340
  C           1.55009866868899     -0.99214741164725     -3.14933977377082
  O           1.22545278240688     -1.75655575028529     -2.01530096147105
  N           5.00911024957053     -0.04137537488110     -4.45781906248547
  H           3.04840275683337      0.42733875068600     -5.09225424885248
  H           3.66665823721787     -1.33731588461480     -2.64804606430845
  H           1.14091607875923     -1.57171941734940     -3.98606104262473
  H           1.04198670686121     -0.02000625130233     -3.13997912214159
  F           2.50865730030121      2.13688522415603     -0.13978879141209
  H           1.04880906097448      1.65757615999101     -1.38276683120528
  H           2.71026932489145      1.14311990548083     -1.83824424886415
  F           1.14380922332467     -2.04208403805082      1.49779813585104
  H           2.10192571812122     -3.13840967694211      0.14571938604006
  H           0.33146451442546     -2.98067524791488     -0.06004361999645
  O           5.69019591326401     -0.61095178109143     -3.63499151905773
  O           5.42988647200775      0.59806659069178     -5.39579162084814
