16
Coordinates from ORCA-job NEB E -31.375743073860
  C           0.74705886645897     -0.22719718975640      0.99382319493557
  C          -0.54984958453020     -0.83771377245763      1.04612119604488
  Cl          0.94663171414322      1.27481150227148      1.90722043849868
  H           1.59758097170456     -0.87666323406074      1.18931080054299
  C          -0.58815975811750     -2.25005604667641      0.91734389487120
  C           0.90781851069595      0.27691817490146     -0.70461639477447
  C          -0.26771941481022      1.06891612832844     -0.91248681061742
  C          -1.52946745731068      0.45161510429608     -0.78666575179091
  O          -1.58789342480153     -0.11583309298250      0.77722955306581
  O           2.13921736486539      0.84917477956333     -0.82763259071725
  H           0.93362584203284     -0.68670125714047     -1.21407328671071
  H          -0.18783776959077      2.12784939111301     -0.70684471718765
  H          -1.67928779886134     -0.48519852312599     -1.31524419011410
  H          -2.39533254442994      1.09996536501832     -0.81992270327148
  N          -0.62180962315024     -3.39776726923390      0.87795413256940
  H           2.13542410570149      1.72787993994195     -0.42151676534451
