16
Coordinates from ORCA-job NEB_reactant E -31.409689327270
  C           1.77028552938790     -0.02271626928815     -0.13326672125962
  C           1.47290562555241     -0.77044145761175     -1.20988334409205
  Cl          1.68171032147716      1.68888151037021      0.03987548302745
  H           2.11334084538018     -0.51771781673588      0.76165078627848
  C           1.64295432622274     -2.17649506932152     -1.01107997868711
  C           2.82311206937380      1.41682506885828     -4.47377817417123
  C           2.32107893435206      1.39527771423708     -3.24552073973493
  C           0.96431244573557      0.84600421135485     -2.93611405620595
  O           1.02170805691388     -0.49530581176853     -2.44578757510975
  O           4.03683435058991      1.87977483961467     -4.82596499043943
  H           2.27030512955511      1.06567559175612     -5.33359135725644
  H           2.90905347336128      1.74641325224995     -2.40814690757190
  H           0.37557158378627      0.75363586832026     -3.85145329837628
  H           0.43100062481792      1.48465152110371     -2.22668334154174
  N           1.78277604484125     -3.30026569663004     -0.84514808325227
  H           4.52025063865255      2.18170254349073     -4.04550770160722
