18
Coordinates from ORCA-job NEB E -34.877996381260
  C           0.35164449074838      0.37172668008684     -1.20222233472526
  C           0.32387551066579      1.22771287182198     -0.07960965781474
  F           1.54762515653759      0.11870991726806     -1.76198224984651
  H          -0.41301126392904      0.46927206386379     -1.96828824909364
  C           1.59190222507286      1.43661399690219      0.72349516619198
  C          -0.23004420327590     -1.25155066830561     -0.39792261644089
  C          -1.43748785758881     -0.89553470925206      0.23466115505151
  C          -1.38343736278126      0.05629017459965      1.27615884062431
  O          -0.82680349354551      1.41580797899081      0.47892230247484
  C          -0.30681605222483     -2.15731994466784     -1.49860602512538
  H           0.64360627340265     -1.42881394741136      0.22619996057362
  H          -2.35460433605938     -0.99660166656680     -0.32893804574918
  H          -0.60968337925033     -0.06399999290465      2.02712792590198
  H          -2.32343810510367      0.40687337125599      1.68019730241102
  F           1.88866205182391      0.30038468393529      1.45914500088249
  H           1.45467172428071      2.24926658208594      1.44103343163352
  H           2.44966738762992      1.62186357986691      0.07267461492103
  N          -0.36632876640309     -2.88070097156911     -2.38204652187068
