18
Coordinates from ORCA-job NEB_product E -34.913299957220
  C           2.03008674801635     -2.01671978907031      0.29984535437938
  C           1.85127374691473     -0.79129079153252      1.19496550621027
  F           3.33970846231998     -2.42442838040921      0.32057785974717
  H           1.79063116897170     -1.74220348212291     -0.73591189468419
  C           2.65735423525279     -0.78191847165338      2.48166049994840
  C           1.11860506643801     -3.16594200345762      0.79403211400548
  C          -0.25818385174034     -2.65421462735666      1.13693453711865
  C          -0.78853486269660     -2.76199640292519      2.33926852863532
  O           1.13205990839008      0.11861703193140      0.88820170631393
  C           1.00847114273573     -4.17129367120488     -0.24215268560694
  H           1.58930473666543     -3.62203668019208      1.67260995502430
  H          -0.79365002198239     -2.18761115896438      0.32188122134695
  H          -0.26110538776199     -3.22619250766882      3.15692121398493
  H          -1.77400265425748     -2.38771094628722      2.55418326508247
  F           2.79270459058559     -2.02926455847952      3.02062355882216
  H           2.17313500947604     -0.14172007571559      3.22528209840590
  H           3.66577618335306     -0.40842974825250      2.26017088365896
  N           0.89646577931930     -4.95334373663861     -1.06649372239315
