18
Coordinates from ORCA-job NEB_reactant E -34.908886334930
  C           1.39597648705040     -0.92001376670121      0.18202430627912
  C           1.89433633552469     -0.83543365316878      1.41319142658857
  F           1.91734876492488     -0.18360179229045     -0.81817270535806
  H           0.57458567600202     -1.53010279967341     -0.15517561028716
  C           3.07841221079931      0.03445846861819      1.75013231424598
  C          -0.15381161293933     -4.32919421885280      0.83219594104892
  C           0.72670163863184     -3.61447931980756      1.52976770766750
  C           0.36490515974204     -2.41025969041025      2.34276424171218
  O           1.43506197867359     -1.50303374186219      2.50255064804129
  C           0.20931120437074     -5.48345343923219      0.11003360177964
  H          -1.20307223255236     -4.06382455429366      0.78801586431022
  H           1.76989309968486     -3.89887172820096      1.56196108954658
  H           0.13341919118162     -2.72666810728504      3.36736945119332
  H          -0.51642938643738     -1.89987229113294      1.92984051824299
  F           4.20984470347521     -0.73616965218281      1.86810154352694
  H           2.92652836523696      0.52087703257852      2.71852760759835
  H           3.26760478614498      0.76523593417199      0.96007529311476
  N           0.48768363048591     -6.42139268027444     -0.48680323925112
