26
Coordinates from ORCA-job P E -36.853357520170
  C          -1.23039106512391      0.33770129521245     -2.35906692010954
  C           0.01714073608817     -1.68525340024534     -0.97587258190732
  C          -1.31401002317766     -1.96670320354680     -1.60130832068695
  C          -1.91443206749585     -0.99528413093267     -2.26961561998583
  C          -0.75394702943953      0.75821018729041     -0.95033356096045
  C          -0.05123462624984     -0.37271425205001     -0.19024723875816
  H          -1.73911742527991     -2.95191883336089     -1.49479156752049
  H          -2.86764505095198     -1.12145774715342     -2.75796111788892
  C          -2.10673680358595      1.41283756555086     -2.94307335480194
  H           0.33411982039324     -2.49458233380698     -0.31865036645287
  H          -0.33980402979271      0.22227926830945     -2.99048532647248
  H           0.76856353121248     -1.57718057230846     -1.76477443987523
  H          -1.62426833531774      1.08347372378203     -0.37781437198922
  H          -0.54928137267579     -0.54944230525783      0.76570616704220
  H          -0.08922535139269      1.61718540024283     -1.04811880141938
  Cl          1.62303379294887      0.11398600101326      0.24809672869846
  C          -3.39303991529504      1.61215148863603     -2.45526113755674
  C          -4.19926624138665      2.60619882422049     -2.97871006877576
  C          -3.72865661099481      3.41855886145198     -3.99657351077810
  C          -2.44848061975511      3.23009465139111     -4.48690303018359
  C          -1.64391976334321      2.23346238574447     -3.96241542598865
  H          -3.76608235184466      0.98072293499303     -1.66105797081315
  H          -5.19777947731284      2.74832712162440     -2.59139774092308
  H          -4.35794594434321      4.19512151240519     -4.40559133617182
  H          -2.07471530216651      3.86018524073007     -5.28076619122897
  H          -0.64531847371715      2.09078031606433     -4.35125289449201
