26
Coordinates from ORCA-job R E -36.767541717210
  C          -1.43954052236087     -0.33999657773015     -2.83855828335282
  C           0.06100987660351     -2.79524775450529     -1.92363750784682
  C          -1.22408064722822     -2.52918421159911     -1.70634263417993
  C          -1.89734983684054     -1.28076849345830     -2.00088397335816
  C          -1.46642187884661      2.03495442100873     -0.02027931688173
  C          -0.49446868396012      1.15645132235566     -0.15819805080399
  H          -1.84472806907596     -3.28791656864285     -1.24480799982487
  H          -2.83931784119670     -1.13629673224766     -1.48914601341122
  C          -2.05854314809593      0.93876339503444     -3.13012966160719
  H           0.48687842832972     -3.75179033410298     -1.67505431064495
  H          -0.50561835293357     -0.51478634184538     -3.35518825444510
  H           0.73646744561593     -2.07045718919859     -2.34342624920789
  H          -2.30338334324560      1.82047163778742      0.61874280262623
  H          -0.47373668518955      0.19504984840658      0.33096429806664
  H          -1.46805911661499      2.98131561905294     -0.53077777846865
  Cl          0.86972452595137      1.43347705188323     -1.15986532354347
  C          -3.32070158925648      1.30817468302474     -2.65866130163311
  C          -3.84857639347535      2.55098773924930     -2.94522191942739
  C          -3.12818682252718      3.46002555003858     -3.70447390054783
  C          -1.87653753072191      3.10958761438514     -4.18173932525146
  C          -1.35128571521650      1.86307650214621     -3.90319120869838
  H          -3.89739343340308      0.61494359025038     -2.06552823073100
  H          -4.82823152431117      2.81646255703068     -2.57449352164304
  H          -3.54191287133606      4.43354165455401     -3.92279809849421
  H          -1.30812700342750      3.81148635927226     -4.77499719062248
  H          -0.37219926723664      1.59886465784995     -4.27703704606717
