73
Coordinates from ORCA-job A2R E -117.436251397120
  Ru         -0.05933204692384      2.26398890351440     -0.40592674409880
  H          -0.31594796586010      0.83214151203138     -0.92725162934884
  N           1.36124541173021      1.40178881041271      0.86209212255546
  C           2.61477664116447      1.19303891960961      0.42372325188152
  C           1.09451689685109      1.16589490466749      2.15877239226648
  C           3.65048883663264      0.87831521712414      1.29233639842569
  C           2.08674044746324      0.85146901007931      3.07510372431422
  C           3.39694597324999      0.74065491279944      2.64569430660449
  H           4.64786660768817      0.74341860723980      0.90253474616057
  H           1.82404968101755      0.69526568569281      4.10898324934237
  H           4.19145582930024      0.52265468649943      3.34127286260752
  P           1.72582918807144      2.44844629594401     -1.85481151486981
  C           1.63668721214138      1.81294447457982     -3.64127202926124
  C           2.77031213830329      4.04001474769191     -1.78453307179914
  P          -1.30547502226758      2.11185295207902      1.37780299292268
  C          -1.60604121670285      3.72160068575738      2.35927960031616
  C          -3.00135165157768      1.27323182712492      1.55917697080291
  C           2.84913749788371      1.22078689894729     -1.05382094558516
  H           2.52580933429138      0.24661824786741     -1.44394143648255
  H           3.90395823482402      1.36905904052186     -1.29716793332624
  C          -0.34169841613817      1.14861782483168      2.59500583550387
  H          -0.67158849662030      0.09335868444982      2.54645321085829
  H          -0.46984697796536      1.47856594642297      3.63455744517554
  C          -1.31718686997096      2.99058415719087     -1.55072246343806
  O          -2.11136428067630      3.42092007757181     -2.26346741291321
  H           0.37044422603999      3.64761153647585      0.09812587214266
  C           2.95148555736199      1.26149132951454     -4.19438070777679
  C           0.60571997811471      0.68182176791949     -3.65932102908376
  C           1.10005089032759      2.94057372432109     -4.52462630648871
  H           3.28204287445329      0.38936119747916     -3.63466017272869
  H           2.78827797640895      0.94851109662249     -5.22541062159532
  H           3.74807688896829      1.99606098650332     -4.19694882741480
  H          -0.38059745601509      1.05448240182778     -3.38813640387763
  H           0.54851556885071      0.25682865037698     -4.66082295691982
  H           0.86540547233202     -0.11632143279785     -2.96609574322083
  H           0.24662983789168      3.41891230147577     -4.04115406951509
  H           1.85752443554208      3.69148845440978     -4.73362435955493
  H           0.76323471896536      2.53461261028913     -5.47782198421236
  C           3.27190175868305      4.17952863315974     -0.34248885724212
  C           3.99030137510463      4.06989764729894     -2.70358445240653
  C           1.85279349437541      5.22171613008818     -2.10444866942754
  H           4.06618164486903      3.46969598391371     -0.11844334881789
  H           3.66920957286731      5.18193635061375     -0.19119971248297
  H           2.46466516164244      4.04006736137418      0.37477475479199
  H           3.71156163652139      4.11496582016502     -3.75222406200096
  H           4.56640707173746      4.96797827078078     -2.48127918319507
  H           4.64217215200264      3.21377378021134     -2.53940009613188
  H           1.58136823053379      5.24995340738352     -3.15574477473511
  H           0.93818423303243      5.16201958462894     -1.51576979298186
  H           2.35266184831592      6.15778897000735     -1.85990777823158
  Br         -4.40554055122246      2.51142375751400      1.04271051937099
  Br         -3.01634201886940     -0.16340207514395      0.26259361547235
  Br         -3.43738378763220      0.45118253922915      3.27923005437996
  Br         -2.19263926582793      5.11523108829234      1.13845167583841
  Br         -2.80382957451370      3.70039153032031      3.89833648760801
  Br          0.14219566769560      4.25183383619804      3.03369843553595
  C          -1.09725878374945     -2.53817331392562      1.71724708603847
  O          -0.98265865809248     -1.83427172042481      2.70119558537015
  C          -0.11890376130688     -2.45680473125575      0.60408617390749
  C          -0.47238731070117     -2.69456973556342     -0.72155244562220
  C           0.48485677211037     -2.61931180772335     -1.71559985410193
  C           1.80253195545678     -2.33037764011950     -1.39680022854793
  C           2.15989333821321     -2.08315473371333     -0.08079278070509
  C           1.20049820860032     -2.12835277045766      0.91179886061641
  C          -2.20258624201313     -3.54341648195679      1.57708680951521
  H          -1.49822288166487     -2.90513324144433     -0.98005632042041
  H           0.20349703645338     -2.79200794285530     -2.74363187337849
  H           2.55164543048248     -2.30075451097797     -2.17636221155478
  H           3.18593421685192     -1.85677930605759      0.17326117091912
  H           1.46539305888787     -1.93600528866943      1.94220156030543
  H          -2.69821536527495     -3.67411668596485      2.53559470405614
  H          -1.81270884098780     -4.49216830710156      1.21768600854391
  H          -2.93157477773224     -3.17575205289294      0.85663632134576
