73
Coordinates from ORCA-job A3R E -117.389003512330
  Ru          1.79404354445873      3.50351284994251     -0.28876111810062
  H           0.41730616040263      2.21224085118326     -0.28893831101446
  N           2.20845802967423      2.34398545771699      1.41080338122371
  C           2.82113147671210      1.12483648523816      1.20177318505343
  C           1.85252622791915      2.69215559512401      2.66024302491821
  C           3.06470971530894      0.27595743661170      2.32568519170516
  C           2.11148350865256      1.91766489345059      3.76529569986334
  C           2.74273863919527      0.67513191583297      3.58298164500733
  H           3.53559583508444     -0.67693814264008      2.14088215950656
  H           1.81663634894616      2.25257219826201      4.74539834887211
  H           2.95107527135837      0.05030849270077      4.43754432746854
  P           3.24394374645194      1.96358369111666     -1.32280368437499
  C           2.82034228425736      1.22773675336052     -3.02255293247473
  C           5.09524099335725      2.47078875866167     -1.31450644939787
  P           1.06081688745964      4.90511171799228      1.29012939379739
  C           2.33625285957127      6.26540336900260      1.69350784797136
  C          -0.55526935513101      5.91461558578985      1.51471238503916
  C           3.13389888268849      0.70607599485781     -0.08764396857729
  H           1.11330606680229      0.02677592723576     -0.08882833284306
  H           3.66691200539253     -0.22658040573267     -0.21639218639570
  C           1.03886110813962      3.95522109129197      2.84925607865638
  H          -0.00407261516305      3.66396822680114      3.04657571038500
  H           1.38517509895720      4.53786922070653      3.71324818198657
  C           1.45342274757504      4.50509517632508     -1.81136913889685
  O           1.30757550173521      5.18205536683691     -2.72732211018564
  H           3.07856976163527      4.24880868081789     -0.14640679637317
  C           3.24796764042446     -0.23430793127949     -3.12090058527460
  C           1.30049851019006      1.29837231937529     -3.18675504108385
  C           3.42550954662627      2.06888073959947     -4.14596002892380
  H           2.72127822716539     -0.83263178540039     -2.38053535618777
  H           2.98873134968991     -0.61711863968977     -4.10734484462538
  H           4.31669092095232     -0.36142445818098     -2.98070410049256
  H           0.94951970736238      2.32891912196226     -3.11531670423536
  H           1.02063789856567      0.92361286695875     -4.17074083805743
  H           0.78983761166528      0.68578700885786     -2.45021737372503
  H           3.19795073663064      3.12338776166641     -3.99267748557058
  H           4.50036906323040      1.94376180345777     -4.22860395749589
  H           2.98708238784098      1.76597201208870     -5.09658596497648
  C           5.47342517190786      2.64050700221911      0.15977367662648
  C           6.00927308877945      1.38793010435969     -1.88652596421141
  C           5.30904503891835      3.80314468394023     -2.03262952031873
  H           5.48415828067992      1.68450901553594      0.67860652579225
  H           6.46500798542998      3.08133990722727      0.24045039613339
  H           4.77441471686622      3.29789230123773      0.67147084126291
  H           5.90658302835667      1.27477796625704     -2.96137130475406
  H           7.04482590893415      1.65920221991493     -1.68270470802375
  H           5.81688104292983      0.42978139033613     -1.40680345154665
  H           5.26874731523828      3.69951827994836     -3.11153309611389
  H           4.55372030669544      4.52854850678795     -1.72773052453374
  H           6.28693594885545      4.20580861780346     -1.77263163522321
  Br         -0.49403962710434      7.54259578559665      0.45457284543050
  Br         -1.94728814492698      4.77553088333326      0.74947589458468
  Br         -1.15173783738130      6.32496161294958      3.34795461192297
  Br          2.90261051399843      7.11194746754652      0.03440514131173
  Br          1.87976237189037      7.67252966603810      2.95946913334734
  Br          3.88023789746997      5.35214565951984      2.43981389962449
  C          -0.34546923376917      1.33903749756594     -0.17718832637771
  O           0.24895011222542      0.12177111314489     -0.53483890090653
  C          -1.48010967357505      1.60316815944761     -1.13909634324558
  C          -1.55870253230360      2.77321716543247     -1.87704671527453
  C          -2.60898587769988      2.99120575063991     -2.74963500187114
  C          -3.58990932318587      2.02748758362077     -2.90181135612892
  C          -3.50891774023760      0.84651282751435     -2.18383891474970
  C          -2.46155484700229      0.63385983236788     -1.30727757706651
  C          -0.85386992651375      1.26207300021346      1.26520785922063
  H          -0.78458518628279      3.52854296803560     -1.77227716187661
  H          -2.65587028397452      3.91108184395848     -3.31246407335231
  H          -4.41051336371789      2.19366254368426     -3.58318002461026
  H          -4.26496162664000      0.08564074217026     -2.30694841749890
  H          -2.38830546598010     -0.29419976383195     -0.76204190818934
  H          -0.03625745530635      1.07257971903839      1.95886505488118
  H          -1.55188871353031      0.43072549614962      1.33530871938542
  H          -1.37724620182941      2.16914444239353      1.55033107417846
