73
Coordinates from ORCA-job TSA2R_3R E -117.380482413550
  Ru         -0.97318787111201      0.56283542339508      0.26162094500218
  H          -0.51933577242251     -1.19659952635144      0.22149825233143
  N           0.36646541323354      0.46023739916960      1.89361438062256
  C           1.69148810995373      0.38605916073414      1.60372964764398
  C          -0.03132970162994      0.44615867803594      3.17162107931216
  C           2.63616534921298      0.37252649252449      2.64808791291657
  C           0.85880573049747      0.46311334955454      4.22943724500458
  C           2.22410306813073      0.44272458191311      3.95413249285444
  H           3.68319471880396      0.31139209768941      2.39701817096701
  H           0.49382735760824      0.47302617984785      5.24291002791489
  H           2.93982832553905      0.45766334734620      4.76101082708588
  P           0.99427557468401      1.05457178663544     -0.92762087408708
  C           1.31790553280073      0.32935441451964     -2.65013462498530
  C           1.57836557888116      2.87629075738613     -0.88298311886121
  P          -2.45115887045063      0.61436495646285      1.92781154043707
  C          -3.09914226808744      2.38136822630074      2.27492536538891
  C          -4.03752166594712     -0.38501293947063      2.32946278749144
  C           2.08861822907128      0.19973457667442      0.22857422503584
  H           1.78297241180675     -1.10377321788146      0.01091794753678
  H           3.15626359413192      0.30148892414236      0.04553574348698
  C          -1.50464918509324      0.28550918922499      3.46087450441748
  H          -1.67414539564174     -0.76879002191959      3.72989567399451
  H          -1.82796879142878      0.89822078272944      4.31259262439647
  C          -2.13100267350166      0.68599931391851     -1.18070606550914
  O          -2.86211028343051      0.85100956113966     -2.04995587344897
  H          -1.02222951161217      2.06458963496773      0.36559019684087
  C           2.77675753013982     -0.08575349893195     -2.82733166497435
  C           0.44462629908559     -0.91874857718180     -2.79271286449174
  C           0.87186788908993      1.31335865814409     -3.73264054185245
  H           3.02249183333182     -0.89537730459890     -2.14425601695581
  H           2.91792675011692     -0.45180526631495     -3.84349035858391
  H           3.46733217737242      0.73662303477040     -2.66924033530789
  H          -0.61128600671118     -0.67522572313586     -2.67047315213725
  H           0.57372233568692     -1.34244872769602     -3.78752325825819
  H           0.73118420634798     -1.68175684349795     -2.07373215482829
  H          -0.13178104031198      1.68070941477299     -3.51823474407811
  H           1.54782324383511      2.15661882844874     -3.83653457800325
  H           0.84161878059099      0.79898844159729     -4.69264665089709
  C           1.69613162499771      3.27268614367459      0.59169502939447
  C           2.95350274562447      3.08201649176969     -1.51655278116727
  C           0.53290711633175      3.77633142883862     -1.54345267231179
  H           2.52092497723176      2.75918989608368      1.08127841389136
  H           1.87805506073137      4.34317594553636      0.66871326162813
  H           0.77866805077563      3.05833080139682      1.13550352026391
  H           2.94465533057118      2.93318541003639     -2.59163023080019
  H           3.27468879125994      4.10640181526344     -1.32992908227961
  H           3.69222002457652      2.41764151318055     -1.07143167539899
  H           0.56987244821029      3.72197771052871     -2.62600150798381
  H          -0.47005467522057      3.49778771000115     -1.21788556811365
  H           0.70417271309711      4.81221805790182     -1.25529933845570
  Br         -5.53870180412550      0.32212404252514      1.31753272513833
  Br         -3.67851305465422     -2.18672906115882      1.66241255232937
  Br         -4.54446919720208     -0.60899017684748      4.22097033685560
  Br         -3.71993413856166      3.16571320812539      0.60611325736457
  Br         -4.47579910120435      2.67091871489085      3.62151500105515
  Br         -1.55773598403202      3.41154366925089      2.86264480816625
  C           0.03194006779570     -2.31418368187114      0.29351918290802
  O           1.27421516139573     -2.25471680328699     -0.20038286021314
  C          -0.85318838984199     -3.22901829986506     -0.52866365458205
  C          -2.01121590355374     -2.80282043641677     -1.15824118627194
  C          -2.77514732978263     -3.67813748848837     -1.90867691255848
  C          -2.37837791974386     -4.99581182941428     -2.04831910953938
  C          -1.20988356875396     -5.42646348866720     -1.44316891716391
  C          -0.45152510929363     -4.55040115186452     -0.69036579025535
  C           0.00872178026519     -2.73278178567170      1.77377710347056
  H          -2.32365760886190     -1.76592744121568     -1.06605301518843
  H          -3.67729257616356     -3.32700514354579     -2.38720943384957
  H          -2.97248912994798     -5.68166211798103     -2.63358143518085
  H          -0.88571516422504     -6.45019867842802     -1.55894710325558
  H           0.47146845106477     -4.87867645505620     -0.23696554949320
  H           0.64246375928848     -2.08063675179295      2.37261924243781
  H           0.41806982715334     -3.73870989735607      1.83789758942398
  H          -0.99975827777432     -2.74761743514125      2.17592108631335
