27
Coordinates from ORCA-job P E -39.298335118910
  C          -1.21775175036235      0.26406749904787     -2.48904696217663
  C           0.07293119103032     -1.70829319095174     -1.07439269892657
  C          -1.17699989655795     -2.06735889780563     -1.81041959266708
  C          -1.80103909179653     -1.12145941983596     -2.49325091589274
  C          -0.87869984082179      0.67786632168292     -1.03883343115794
  C          -0.14999990540224     -0.42518306151449     -0.24964396593851
  H          -1.53276074149905     -3.08482390122689     -1.76573040511396
  H          -2.70374448674802     -1.30879668676229     -3.05144351712165
  N          -2.01077874414877      1.30826670109647     -3.12121195137630
  H           0.39649072886860     -2.51372526790230     -0.41518326031526
  H          -0.26385194269514      0.22911976341350     -3.03268917554775
  H           0.87375461363553     -1.51891168591389     -1.79660015059788
  H          -1.80290783886991      0.93877818956053     -0.52532600622872
  H          -0.73450854448397     -0.69107275273258      0.63642492975257
  H          -0.26825011344440      1.58009539856305     -1.08926980018937
  C           1.19001167115920      0.09307143631355      0.26629594036954
  C          -1.84083924946198      1.36200230995247     -4.55669266967434
  C          -3.41500664561696      1.32061217012527     -2.76571093242659
  H          -0.78404504084553      1.47762266479155     -4.79300248865734
  H          -2.37640686049230      2.23083035201752     -4.93810464976167
  H          -2.22121075984061      0.46683558498921     -5.07333164303170
  H          -3.53539039228132      1.13689362122694     -1.70123224162983
  H          -4.01019412523081      0.57681421181110     -3.31590702903830
  H          -3.81856758234621      2.30838973722240     -2.99267709945130
  F           1.81459501781560     -0.84069240976706      1.02854104115801
  F           2.04109083003399      0.37289986218875     -0.75122214178210
  H           1.09523950040260      1.00513145040972      0.87687081742337
