27
Coordinates from ORCA-job R E -39.219019817310
  C          -1.50627776052309     -0.30234347684084     -2.78390673091955
  C          -0.28990413107792     -2.69525788940554     -1.39839457108129
  C          -1.58793456167229     -2.46318058764995     -1.59527131492463
  C          -2.19399054100633     -1.29801112600838     -2.19479261304290
  C          -1.05682738042648      0.86242489195982     -0.00316601158051
  C           0.14331159557047      0.40393990006765      0.29549718424638
  H          -2.29432821064674     -3.22178410546560     -1.27776606277698
  H          -3.27312775199819     -1.26785853958692     -2.16036306375659
  N          -2.00474193007863      0.86383183978677     -3.29478530471647
  H           0.05115794730733     -3.61120693600734     -0.94869869475935
  H          -0.42999348384586     -0.36911793911966     -2.84353626662274
  H           0.47682115836114     -1.99314586560739     -1.66986996324223
  H          -1.93643950937934      0.47742195087254      0.48116963789602
  H           0.31000331890119     -0.38198675927027      1.01711466372663
  H          -1.20125629438733      1.63896610098847     -0.73488874290602
  C           1.40160959791046      0.89446630233402     -0.35490743804890
  C          -1.19234081498772      1.61063777999969     -4.22197757856696
  C          -3.42844860444244      1.03990146591999     -3.42688501010338
  H          -0.14521884931193      1.52001620094467     -3.94078259838276
  H          -1.46994330143569      2.66541740559865     -4.18044299729247
  H          -1.31330568809857      1.26198043175950     -5.25604684285462
  H          -3.91428793538647      0.81735651572465     -2.47738931390608
  H          -3.85998604198951      0.39322087969427     -4.20164773326376
  H          -3.63671229367168      2.07736297882048     -3.68627072243359
  F           2.19624780033759     -0.14761331680228     -0.71432266931805
  F           1.16980944669126      1.59190370609460     -1.49531249473746
  H           2.00085421928674      1.54199819119837      0.31038325336825
