27
Coordinates from ORCA-job TS E -39.207777204680
  C          -0.43486515068983     -0.28758513506647     -0.88900669256353
  C           1.06865958336505     -2.06317773213588      0.81127234720132
  C          -0.26186921665807     -2.23175505527518      0.55536043478082
  C          -1.00743375072777     -1.36294068747332     -0.25553325096790
  C           0.15160485451213      0.71284469050759      1.20439089780189
  C           1.00929336766193     -0.12559592532388      1.85180248408920
  H          -0.82100523554247     -2.93874725940805      1.15436606696339
  H          -2.08059299574288     -1.47827294287141     -0.25008150224050
  N          -1.09517023372095      0.63249560884461     -1.64562975325117
  H           1.56122851491695     -2.71467028300108      1.51502333532171
  H           0.63224268752519     -0.27907201680012     -1.04226477029213
  H           1.71830942651307     -1.61644730531602      0.08046857792166
  H          -0.88677982198487      0.74652574134168      1.47210035953003
  H           0.70597749994286     -0.65629673921389      2.73933730030182
  H           0.52681136859939      1.49396123325845      0.56946218849793
  C           2.48354554772447      0.15991545950435      1.78841350041209
  C          -0.38225787133681      1.79322501504799     -2.11633806689163
  C          -2.52125580311239      0.80106820606021     -1.50516957548691
  H           0.67688260800390      1.56351115570143     -2.21262255420196
  H          -0.49556070509559      2.64668683814094     -1.43584986490362
  H          -0.76421222236800      2.08393557429499     -3.09704206625943
  H          -2.79691702713739      1.16888706883538     -0.50976778880308
  H          -3.02724864898061     -0.14752978752305     -1.68011866010728
  H          -2.86902217510151      1.51546666563232     -2.24909451601138
  F           3.24067334227102     -0.87714429154901      2.22494900135174
  F           2.90055647447555      0.42560259369432      0.51972116841800
  H           2.76840558268765      1.03510931009311      2.40185139938892
