18
Coordinates from ORCA-job NEB E -38.572621649460
  C           0.77928468584134     -0.87606702440908     -0.43977794553790
  C          -0.75267651663231     -1.17535341405096     -0.65989395054612
  F           1.01744866200317     -1.73738161716881      0.78642856495834
  H           1.71743681817760     -1.02448677113655     -0.93731095475098
  C          -1.35149613853155     -0.62755437443233     -2.03828029491091
  C           0.60103312699726      0.55845357246804      0.11029461773710
  C           0.98650607376784      0.63143419283865      1.58637359306857
  C           0.14009659595386      0.81866514841685      2.59221360672301
  O          -1.26168140512042     -1.83724449624286      0.17299899331075
  O           1.16543412686562      1.49240978408131     -0.72340804976018
  H          -0.51937233631998      0.77920717503303      0.18565241710414
  H           1.84713513075994      0.07923255932191      1.97873428601181
  H          -0.90550160722363      1.12771279618280      2.36352771569105
  H           0.22156886616004      1.03846833350417      3.63078650941278
  F          -1.37116650075171      1.08610970935314     -1.91734905545668
  F          -0.50618520954704     -1.02649584111425     -2.93648888729170
  H          -2.38203741548671     -0.89449029839684     -2.27341349811775
  H           0.57417304308671      1.58738056575176     -1.48108766764532
