18
Coordinates from ORCA-job NEB_product E -38.680859721100
  C           3.03242362606403      2.22494385171034     -0.67701852297057
  C           1.72933390675693      1.47383977509020     -0.62000508987671
  F           4.06168015431073      1.39917709243936     -0.29204844550346
  H           3.25613699249955      2.55685887751724     -1.69865629365195
  C           0.55730964689033      2.17960940061124     -1.34925227161656
  C           3.03047399049200      3.46779737949855      0.27901677873073
  C           2.77775887460560      3.00343467437903      1.68726940456316
  C           1.67061059813633      3.25885546554948      2.35620023045904
  O           1.55049680503316      0.43891241892439     -0.04726914624208
  O           4.23989938907007      4.15081672585848      0.13925148175235
  H           2.25338136889001      4.16214738461768     -0.05194991258597
  H           3.58139918004620      2.42651026841324      2.12566335646442
  H           0.86433366098548      3.82872731728839      1.92546955547590
  H           1.52681154594806      2.90384436137235      3.36171032833445
  F           0.02348554634226      3.12607034623695     -0.54150148097975
  F           0.97802531678474      2.81884692434687     -2.46245658577032
  H          -0.23626835473230      1.46836042953056     -1.62152152049955
  H           4.95670775187680      3.58984730661566      0.46509813391686
