20
Coordinates from ORCA-job NEB E -52.512606707650
  C           1.09799427566824      0.45455758022328      0.21392836322582
  C           0.58012927490191      0.88672296084234      1.45343616982898
  C           1.10585513815985      1.46625560829199     -0.90058432960092
  H           2.05163595525542     -0.07010940021172      0.25849021494416
  Cl          1.24485908220024      0.09465836579553      2.87531503343434
  C          -0.20473478938397     -0.99001640065320     -0.02509411423399
  C          -1.45688894563673     -0.38095458889335      0.10967798901886
  C          -1.75679226943089      0.25325130865698      1.34882206378038
  O          -0.58989886090054      1.37403956834398      1.54779946667590
  C           0.04633245582724     -1.77183776797743     -1.29275970540581
  H           0.18076678143425     -1.55409038678566      0.82268876208587
  H          -2.00999332947596     -0.10536463279040     -0.77498622060650
  H          -1.59246863091730     -0.33294407265509      2.24995330544407
  H          -2.66462256533492      0.84251508999770      1.38079977707747
  Br         -0.58512247773556      2.29577196583660     -1.31674991229357
  Br          2.31198022970938      2.93293739888244     -0.31304417255871
  Br          1.88382513411158      0.78468622539907     -2.54576692804999
  F          -0.41401411173342     -1.17714772430416     -2.39459438340932
  F           1.34448794744652     -2.04066831773882     -1.48192921205690
  F          -0.57333029416535     -2.96226278026009     -1.21540216730013
