20
Coordinates from ORCA-job NEB_reactant E -52.552736936680
  C           1.55469090777474      0.15260627883026     -0.00460571891230
  C           0.91779702468327     -0.96741923639063      0.37007500188485
  C           1.97785593631526      0.31872680703478     -1.40610270483483
  H           1.76742855415205      0.93568703176789      0.70183020473930
  Cl          0.40911731279193     -1.19462239254722      2.00155259667796
  C          -0.15512025283198     -5.21743851444400     -1.47384851383462
  C          -0.21183978523552     -3.89791347904371     -1.41891774595956
  C          -0.01025026418505     -3.10888006510104     -0.16667328415429
  O           0.67235778190631     -1.91777247030835     -0.52543459682635
  C          -0.40434704503063     -5.99007098122378     -2.73232722061297
  H           0.05628771137480     -5.84186320340078     -0.61868426820836
  H          -0.41805821016842     -3.30784637898975     -2.30173785005086
  H           0.56922861462236     -3.67076966420761      0.57431223511717
  H          -0.98894709502780     -2.85617307257214      0.26541130894626
  Br          2.84675647606029      2.02614882906428     -1.68136928365333
  Br          3.23325791405518     -1.10352640945876     -1.96012146612301
  Br          0.44884843902448      0.21033009610068     -2.64561206350424
  F          -0.63350313847417     -5.21670022603704     -3.79761849359020
  F           0.63301305666392     -6.78412411922851     -3.04116622322089
  F          -1.47187393847103     -6.80027882984457     -2.60716191387974
