19
Coordinates from ORCA-job NEB E -36.598748351590
  C          -0.34462201372077     -1.29130626753930     -0.18098181415709
  C          -1.12570030339377     -0.52402433639498     -1.03386322656127
  H          -0.77789436105280     -1.62096070710141      0.74971862523863
  H           0.33090398301620     -1.99372416647329     -0.65158717860489
  N          -0.68113069906736     -0.37917905913619     -2.40494624938043
  C           0.78662543036542      0.13599241690304      0.57024924022750
  C          -0.17828500608544      1.04245462423480      0.97590423213331
  C          -1.06706407829881      1.61759127940371     -0.01567546662779
  O          -1.87899685990867      0.44793427541857     -0.57317812316164
  C           1.64902539344767     -0.54618319248663      1.60570935549480
  H           1.32758496128718      0.34179737943925     -0.34840121865192
  H          -0.52146915277785      1.01499255392772      2.00081120442240
  H          -0.57552469476593      2.05519756063580     -0.88644911626803
  H          -1.82595544648589      2.28411444177990      0.38190372475023
  O          -1.03812253445257      0.61596348161165     -3.00156273628807
  O           0.02213821528354     -1.26189735737929     -2.86193080603715
  F           2.73271377892986      0.25157600901472      1.88367124472407
  H           2.05040487989107     -1.49661049368700      1.24042560027578
  H           1.11536850778893     -0.69372844217108      2.55018270847156
