19
Coordinates from ORCA-job NEB_reactant E -36.617366895840
  C           0.86773052681212     -0.22184064808832     -0.58040865602974
  C           1.35474005452526      1.01781183677475     -0.58219715845781
  H           0.80739558552963     -0.78673358248548      0.33061528805267
  H           0.50882955434626     -0.66374652362989     -1.49129963768766
  N           1.36526859752549      1.74675518143992     -1.85498561775606
  C           4.73798094299191      2.55299940440091      2.03973427075232
  C           3.43276347630988      2.61352159740519      1.84035528373732
  C           2.79137853342444      2.62103467304028      0.48987420131877
  O           1.71333507477181      1.67366581525847      0.52272947511208
  C           5.39034898506477      2.57516991359348      3.38429609732679
  H           5.43675491083716      2.49931207603273      1.21603910215974
  H           2.74679497960471      2.66158234192515      2.67299825827238
  H           3.51913763850050      2.35897834745184     -0.28545929918798
  H           2.38536181547604      3.61763480827836      0.27441597972580
  O           1.36832852882078      2.95777526494711     -1.80292961743181
  O           1.35706521860771      1.09044940382471     -2.87177112561739
  F           4.47699836660628      2.64642382838076      4.40230718617960
  H           6.04758179434175      3.44849962719028      3.48429889949305
  H           5.97800541590351      1.66260663425976      3.54708707003794
