19
Coordinates from ORCA-job NEB_product E -36.628364373570
  C           2.60532010954566      0.62278265249363      0.87573236877701
  C           1.42407527829987      0.99575763462697      0.05601454113731
  H           2.25479520799804      0.18894507742627      1.81351070029828
  H           3.21223571585517     -0.10113518249785      0.32893267921979
  N           1.80228821439758      1.34811012165869     -1.40747072795283
  C           3.45757509204078      1.88245378761890      1.16035993814040
  C           2.60345675364539      2.97843656620857      1.73344729445218
  C           2.45815635713766      4.16443260278916      1.17562940131504
  O           0.28120833997366      1.08699846570658      0.34630751341020
  C           4.57863237786179      1.50910875159410      2.13608559718893
  H           3.92365143393411      2.22560663056861      0.23168600369369
  H           2.10168284987254      2.73543520265642      2.66054804451185
  H           2.95536832710330      4.42584811283273      0.25578275316319
  H           1.84258894532527      4.92761653259974      1.61779819834446
  O           0.93548184623880      1.86238447757331     -2.05839393324866
  O           2.92464156794669      1.07960010719099     -1.76495613965986
  F           5.44185431970557      2.56152087537894      2.27474031219172
  H           5.16687784930573      0.66448818657208      1.76177705649587
  H           4.18680941381239      1.28600939700214      3.13436839852145
