21
Coordinates from ORCA-job NEB E -53.362882609940
  C           0.44724854893755      0.33067438533257     -0.90195205142210
  C          -0.99391381493846     -0.02699462930843     -0.61348660861246
  O           1.14124428033284     -0.69501566330498     -1.56304867053662
  H           0.43886297587683      1.23676279614908     -1.52365793105864
  C          -1.82027824285268     -0.46380153797106     -1.77341598069576
  C           1.07252079338657      0.74576533255350      0.44653556262388
  C          -0.09205328910717      1.15175445575581      1.27214494614877
  C          -1.08053993588624      0.12903139527795      1.65947323812199
  O          -1.50703950131178     -0.55744723243974      0.52074462589852
  C           1.94893539872500     -0.36634712363032      1.06187750348957
  H           1.74560563335890      1.59421374268296      0.30012509588949
  H           0.01562377355845      2.01146037477659      1.91122192556429
  H          -1.97581482847481      0.58177846551232      2.10125602816124
  H          -0.68700048449264     -0.59269086494238      2.39064410071940
  H           0.94749735660660     -0.68391225420983     -2.50788553621976
  Cl         -1.76855351072455     -2.27113229892337     -1.96875851933739
  Cl         -3.52505720256436     -0.01822836361383     -1.50216431443145
  Cl         -1.30367198149239      0.25649482339983     -3.30201453056576
  Cl          2.32459541337756      0.07812907607788      2.74809862847817
  Cl          1.18705096170836     -1.95921125129896      1.06483631696768
  Cl          3.48473765597643     -0.48128362787558      0.17942617081695
