21
Coordinates from ORCA-job NEB_reactant E -53.422166033810
  C           1.62010917524142      0.13482229806502     -0.13349291941549
  C           1.40205522092548      1.45281541832796     -0.06323012110005
  O           1.61875471643055     -0.67957683597849      0.95671881214451
  H           1.81956393520518     -0.31789719453194     -1.09264489210347
  C           1.43570910128196      2.34122056407045     -1.27242698971773
  C           4.01559761470940      3.23317970409979      2.53199336896137
  C           3.36060610257467      2.22727616986664      1.97525457947902
  C           1.91219106049249      1.93783662792692      2.22405181721064
  O           1.13726409183624      2.19308216129204      1.05715499573051
  C           5.43381030622505      3.58842314318964      2.26846318194409
  H           3.53447069533631      3.89196632988356      3.24159666614692
  H           3.84588313157464      1.58258285998344      1.25629297055361
  H           1.49552707487711      2.61180287734919      2.97419771477318
  H           1.78763112091859      0.89766428558746      2.54525544061883
  H           1.79243440334194     -1.58875894571886      0.69180569996264
  Cl          1.46440177733747      1.47034266718647     -2.80238015685619
  Cl          0.01980078341008      3.41471768921558     -1.26376625991017
  Cl          2.90999902371852      3.36641687999674     -1.18609468906767
  Cl          5.50015885988389      5.24544436497032      1.59403357232727
  Cl          6.34649028247511      3.57715454415244      3.80681042555956
  Cl          6.24614152220389      2.50138439106562      1.13730678275862
