21
Coordinates from ORCA-job NEB_product E -53.426075178750
  C           3.22030698342803      1.24598678824326      0.28582848536944
  C           1.74740848324745      1.36321501538587     -0.07809520834782
  O           3.50474456977580     -0.05222079015491      0.68322806549897
  H           3.86342768002159      1.47305990209940     -0.56875446781958
  C           1.38696737108032      2.27042832385751     -1.25827177710506
  C           3.46131149788506      2.30756320054093      1.41643087737528
  C           2.82603880964042      1.85028221839556      2.69895066048347
  C           1.70732366854286      2.36331105823640      3.17369290330896
  O           0.90574883946505      0.73156397787807      0.49368432307954
  C           4.95323385639078      2.57447733490979      1.61109352277255
  H           3.01008007896474      3.25290829348552      1.10119337067156
  H           3.33642919183919      1.04688888656650      3.21003694279241
  H           1.18919301039156      3.16627499078150      2.67571964276297
  H           1.26498290097599      2.00071863223645      4.08444100856374
  H           2.77210147517008     -0.37931416652513      1.22638134508731
  Cl          1.70174153849761      1.21470094780826     -2.66894830798625
  Cl         -0.31860447682876      2.72185033206369     -1.21086214272957
  Cl          2.38822296703723      3.72151172190751     -1.38906328066443
  Cl          5.14629037039402      3.79055364570107      2.90098535317291
  Cl          5.85424333415547      1.12334175734375      2.06489804521395
  Cl          5.66500784992552      3.24269792923899      0.12203063849963
