22
Coordinates from ORCA-job NEB_reactant E -47.716974516160
  C           1.35950520085079     -0.48097435921411      0.16826203870563
  C           2.08731785102792     -1.13372917167460      1.11281662386700
  C           1.89701613090525     -0.11414150925257     -1.12715423419013
  H           0.34539977600440     -0.18422785022294      0.36851859328519
  N           3.37764155241302     -1.52005950380119      0.95091986385451
  C          -0.78455251754471     -1.60449938629174      4.85747819338206
  C          -0.03682456084151     -2.10198985128174      3.88800009184743
  C           0.22473260673494     -1.40763825210472      2.59042035418611
  O           1.60845852859806     -1.53412658469983      2.30767410076801
  C          -1.06518968441961     -2.32604393604482      6.14110790353204
  H          -1.27862335470712     -0.64703561469912      4.78031520101055
  H           0.44073995244746     -3.06564728345991      3.99458847246046
  H          -0.06117058347898     -0.35022589780553      2.64823992942647
  H          -0.36057361718162     -1.89384800342452      1.79621600191474
  Br          0.56741601210092      0.73541977080349     -2.24834578812643
  Br          3.45835420015798      1.21364799845401     -0.98949001074545
  Br          2.64578029838882     -1.65458600069001     -2.14780167393780
  H           3.81163262302694     -1.92839443518535      1.76235561391159
  H           3.98206821891091     -1.00367142043713      0.33301961721467
  F          -2.40475922675097     -2.46990695707469      6.32085232998496
  F          -0.54286668154561     -3.57262177690882      6.15549360589431
  H          -0.67630272509731     -1.78839997498415      7.02361317175408
