22
Coordinates from ORCA-job NEB_product E -47.728270953660
  C           1.27104573726830     -0.95514789703837      1.95287842277867
  C           2.53877971207393     -0.64837465025977      2.80215145479255
  C           1.46894188437913     -1.69753790952366      0.64601360072615
  H           0.91839647650364      0.04571922671750      1.65633706727987
  N           3.71518605259466     -1.18488020010447      2.45486502016352
  C           0.18753767686788     -1.44248611175265      2.96018398664344
  C          -1.22794618096819     -1.22976526828639      2.48565619743481
  C          -1.79786733074682     -0.03950333068937      2.45303465896643
  O           2.41468186195305      0.11168806415571      3.73462963965614
  C           0.36016022625444     -2.87474549963763      3.46046405281096
  H           0.35815931952609     -0.79327848823862      3.83045277015359
  H          -1.76910526233760     -2.11084424813041      2.17249916312959
  H          -1.27724259893736      0.85060903868291      2.76794046091695
  H          -2.80648427229417      0.09078894860120      2.10466821605117
  Br         -0.20095317259966     -1.84833361867642     -0.37033561602875
  Br          2.67021359493847     -0.60214945236393     -0.48392867009587
  Br          2.24717621437326     -3.48493872151003      0.70707752898529
  H           4.49305137829044     -0.97180032966120      3.05980990903319
  H           3.83921914227706     -1.93807956561152      1.80044445961321
  F          -0.02809474682485     -3.79097783755169      2.54187046365584
  F           1.65576411515957     -3.14774947517235      3.75028461726577
  H          -0.23361982775131     -3.05511267394884      4.36920259606747
