23
Coordinates from ORCA-job NEB_reactant E -51.654958831370
  C           1.40531851368505     -0.53226377982615      0.14462745045939
  C           2.07156172262867     -1.23241400950707      1.07454205528882
  C           1.94003321214872      0.08276442450730     -1.08634156327083
  H           0.35506982806712     -0.33282156032051      0.30076056119095
  C           3.54499063032506     -1.55922099125059      1.07893134516407
  C          -1.00380550609876     -1.99587623559403      4.58733402285759
  C          -0.22441594675871     -2.43830638788305      3.61618430111527
  C           0.10586570808811     -1.65671136895908      2.38521802494127
  O           1.50454364520717     -1.77059456127522      2.17153530445811
  C          -1.35165611631048     -2.80260690080153      5.80215421251037
  H          -1.47661232030910     -1.02501768650451      4.55987382595753
  H           0.23096025202064     -3.41682913191887      3.67210506019759
  H          -0.18109735353777     -0.60438549826648      2.50123004524543
  H          -0.43563074671665     -2.08529428641492      1.52860225662208
  Br          0.44824064578391      0.46709901242481     -2.30429465284579
  Br          2.83365449677995      1.82380357709529     -0.72855299134159
  Br          3.17740319882588     -1.04039611842615     -2.09774033888848
  F           4.30292040524040     -0.48929422953977      0.69956213500725
  H           3.77483362594781     -2.38262910425924      0.39203574524360
  H           3.83855710930070     -1.82966770491775      2.09757731340908
  F          -2.70002343587799     -2.92034038155019      5.92146538695077
  F          -0.86283608667000     -4.06123041189574      5.73996892299043
  H          -0.98217548176975     -2.34386666491655      6.73602157673707
