17
Coordinates from ORCA-job NEB E -30.737079390860
  C           1.01956223997272     -0.26715484053204      0.93645012375496
  C          -0.13853604856207      0.22418900235236      1.56708658951308
  Cl          2.44027339156730      0.73126473759802      0.88217159616228
  H           1.24431683055794     -1.31807018024523      1.04229376890038
  C          -0.19658833085703      1.64126380903404      1.81660144020362
  C           0.41128824138846     -0.45129942525109     -1.06140827302199
  C          -0.98213720370765     -0.23669027907341     -0.95897896768414
  C          -1.76512901864222     -1.03990439410427     -0.17804264864899
  O          -1.18404518435897     -0.47637560303203      1.62425666281845
  N           1.17751762488935      0.39800820671899     -1.80189605758780
  H           0.75153817956661     -1.47904819263928     -1.09099025968444
  H          -1.34083137241716      0.75318712963616     -1.21384513060104
  H          -1.46966322071147     -2.05620351641494      0.02493302851242
  H          -2.81005799487607     -0.81980084274853     -0.04492343485306
  N          -0.24121514067384      2.76927440690855      2.01344662726473
  H           0.90846092271185      1.37125544181574     -1.78563299783911
  H           2.17524608415225      0.25610453997699     -1.77152206720934
