17
Coordinates from ORCA-job NEB_reactant E -30.772388695880
  C           1.56598819681799     -0.14413169665540     -0.18758918901998
  C           1.41947054194376     -1.44620585417429      0.11429395426774
  Cl          1.01257707616797      0.69720794513494     -1.58377458002131
  H           2.09213381516655      0.49240480617230      0.50640859085469
  C           1.98663715152956     -1.82260432111500      1.37158845149188
  C           2.09101981249987     -3.49969776526489     -3.35526266542956
  C           1.59364354054473     -2.39192455478106     -2.80520209139457
  C           0.42731778701362     -2.41240201404735     -1.87251903819823
  O           0.83016082348263     -2.48660797898776     -0.49658257428645
  N           3.11517827469743     -3.53579005004494     -4.26950496477420
  H           1.63435901610333     -4.46085945057544     -3.15964814426184
  H           2.05587264969433     -1.43482883726486     -2.99634166873284
  H          -0.15422383268102     -3.32782504260042     -2.00432198086659
  H          -0.22415990089071     -1.54758449245403     -2.02303345142270
  N           2.44660085923798     -2.12331447573336      2.37598178077643
  H           3.67730448104389     -2.70116001991301     -4.33313844956015
  H           3.63481970762807     -4.39457619769541     -4.33845397942231
