17
Coordinates from ORCA-job NEB_product E -39.539920519720
  C           2.12806920867094     -1.95597225191619     -0.98949092005603
  C           0.85183723959117     -2.59401154107764     -0.52391978287070
  I           1.62988160959207      0.16540487947701     -0.95424543013594
  H           2.96163849873179     -2.09518430537590     -0.29997748499032
  C           0.75287253746259     -2.93310259497698      0.95637761691607
  C           2.48624510721565     -2.35910313689423     -2.40483206228660
  C           3.64698181943063     -1.60988319329812     -2.95598260403197
  C           3.62916605094943     -1.01685211944246     -4.13580157182764
  O          -0.05612992547592     -2.87095819532292     -1.25364607126409
  Br          2.94725020705603     -4.29930901728612     -2.33798213689545
  H           1.61031190466601     -2.29566269651005     -3.05477185919950
  H           4.52957399911486     -1.59588912092454     -2.33056776078695
  H           2.75869305815063     -1.03643029024520     -4.77078875282313
  H           4.48522984692849     -0.48323817446824     -4.50833798918807
  Br          1.57750572606719     -1.66963872849189      2.16250663527171
  Br         -1.10018584768326     -3.18608991618407      1.44440468295557
  Br          1.71495895953167     -4.64677959706246      1.09985549121302
