24
Coordinates from ORCA-job NEB_reactant E -45.012351126990
  C           1.25090938066827      0.00482615803367      0.12913775712572
  C           1.90573167658647      1.00787433016221     -0.45365481506365
  C           0.41952788323673      0.18895380003976      1.35464264987157
  H           1.28110763242279     -0.98798925015399     -0.28799991041876
  C           2.70804103242916      0.79089455447633     -1.71898753900872
  C           4.10362173948425      3.85263257488640     -2.16129809043740
  C           2.98108143727331      3.82118141542384     -1.45134925309811
  C           2.88851682588198      3.18318014467841     -0.10060981162195
  O           1.79389647785194      2.27301142788131      0.03820581441574
  O           4.17304493480984      4.44429123128248     -3.37604020387797
  H           5.01734457587421      3.39784966533234     -1.79103690225476
  H           2.08139544877683      4.27882902993536     -1.83277755821900
  H           2.66793696626711      3.94519306242421      0.65502448659766
  H           3.83113074532013      2.69003555223239      0.15966646269943
  F           0.37826614227373     -0.97143198101155      2.08621108361958
  H          -0.61934296612546      0.43103627340638      1.09638017706629
  H           0.82775549784434      0.97384981147865      1.99922594942989
  F           4.04867032267489      0.77179844403199     -1.46889074075237
  F           2.42533394711999     -0.40422478816658     -2.28053655667114
  H           2.52690759999357      1.57600588194285     -2.46964125491808
  C           5.43838862360487      4.41994856590264     -3.99847577191565
  H           5.79137267947431      3.39377970137119     -4.14160888759736
  H           6.17826489023331      4.97617851235704     -3.41412924367174
  H           5.31069650602339      4.89759588205262     -4.96785784129920
