15
Coordinates from ORCA-job NEB E -31.094039860000
  C           1.12035306152971      0.76068954736211     -0.27344625233553
  C           0.52071247052696      1.03877009929864      0.95933607819836
  O           0.67227081808294      1.42966410557571     -1.36443592210079
  H           2.18378426724151      0.52238236298755     -0.25398449741585
  F           1.26897598170119      0.57810405551971      2.03141857711146
  C           0.26544375007917     -1.06094731610636     -0.46932547748817
  C          -1.08572512085910     -0.76432839429386     -0.34734405517433
  C          -1.55396129986569     -0.31700642502656      0.90213192251683
  O          -0.70679610957583      1.16693900250977      1.15534530155458
  Cl          0.87476703619945     -1.54772512064565     -2.02764854086930
  H           0.79807026209144     -1.55155924911737      0.33659386259363
  H          -1.63383125951328     -0.49257988179568     -1.23715523730198
  H          -1.20454575845864     -0.83028214338100      1.79029445765810
  H          -2.57795904973159      0.02053200768371      0.96321767615092
  H           1.05844095055174      1.04734734942927     -2.16499789309792
