15
Coordinates from ORCA-job NEB_reactant E -26.898057728340
  C           1.30299286776517     -0.27363389167651      0.24961749161784
  C           2.25400182761597     -1.18859869135513      0.46160644714657
  Cl          0.12021161578841     -0.48464135267755     -0.98799504358268
  H           1.22486019276046      0.63905506227311      0.81179529646479
  O           3.19496151882076     -1.04932893796749      1.43554662588441
  C           1.57318430761987     -3.95671788327105      1.88466920408734
  C           2.77105206303726     -4.06334613822672      1.34359824524178
  C           3.24088645740596     -3.30694969834095      0.13431976043252
  O           2.34960144980195     -2.29136754941135     -0.29504453522598
  H           1.29268920117091     -4.52548638969058      2.75385952339585
  H           0.82241262189521     -3.29870004513142      1.47957467786648
  H           3.51520988696955     -4.73304361041475      1.75206930274517
  H           3.31336028115747     -3.98535570129071     -0.72226624110904
  H           4.23380612665097     -2.88316876791034      0.32897193040037
  H           3.05086958154009     -0.22931640490855      1.91887731463459
