14
Coordinates from ORCA-job NEB E -26.557847582530
  C           0.18099941684427     -0.92297735349164     -1.19532303137471
  C          -1.08015944821724     -0.75294150364267     -0.64767267136840
  Br          1.25417954872072     -2.33192578030934     -0.51668182687475
  H           0.30924203970996     -0.79372666267534     -2.26244353645192
  F          -1.92024542481112      0.01467382520448     -1.43056355781444
  C           0.99693179692879      0.73791851300804     -0.33397258360825
  C           0.68604688481744      0.53686080158737      0.99401772733083
  C          -0.68465459587780      0.54841587214776      1.37764299859988
  O          -1.33155638571283     -0.76026479036147      0.58986281818129
  H           2.02416327089606      0.64517871409592     -0.65491643295840
  H           0.40476809819885      1.43098118138868     -0.91658129139195
  H           1.38226684979648     -0.00416759884625      1.61906412291456
  H          -1.30381569425893      1.34313950339521      0.97093161007120
  H          -0.91816635703466      0.30883527849924      2.40663565474503
