23
Coordinates from ORCA-job NEB_product E -57.852835713590
  C           2.23403221897763     -2.20102219622518     -0.29942669934595
  C           0.85862990233453     -2.60071108695121      0.20524800947609
  C           2.14053561467306     -0.75521522176525     -0.82713480292521
  H           2.96854249250209     -2.19891766486106      0.51284478514977
  C           0.72758645273978     -2.50913006025432      1.75469912369731
  C           2.67180234764862     -3.18293882333499     -1.41264366856352
  C           3.89785368719122     -2.71018392229487     -2.14382058570146
  C           3.91163483716002     -2.44449682237219     -3.43529468437279
  O          -0.07112723539623     -2.89745470812197     -0.47792726529770
  C           2.96284471668417     -4.54312196489497     -0.76935796243412
  H           1.83706602333086     -3.30853476475582     -2.11007306196982
  H           4.78383088965032     -2.59865536426185     -1.53505028158066
  H           3.02908650704150     -2.53800591494279     -4.04615054562210
  H           4.80540376266751     -2.10629628458946     -3.92849437987219
  F           3.37467909160150     -0.24307340386849     -1.01271614244290
  F           1.51774651198455     -0.70954661409281     -2.01956869537099
  H           1.60596176949772     -0.08679557348528     -0.13353107309740
  F          -0.45427687162952     -2.91057390013998      2.19639241491107
  F           1.67317750549132     -3.20984302656701      2.38258256336172
  F           0.88846176884907     -1.22144294610381      2.12856872397931
  F           3.97980749272563     -4.44879494692565      0.11716826729075
  F           1.89399271423173     -4.98543343855689     -0.06061697458947
  H           3.22442780004291     -5.31421135063415     -1.50819706467975
