17
Coordinates from ORCA-job NEB E -40.641377716570
  C           0.86592554959981      1.28123104198027      0.32599602697584
  C           0.70770285958127      1.41063488691819     -1.06061535098700
  I           2.78626158393157      1.22903208728686      1.15978946155308
  H           0.21972942099272      1.92924467888259      0.90422128884063
  I           2.25565165425248      0.67771895785977     -2.36598251976153
  C          -0.37113076848265     -0.36940932857834      0.67767128054310
  C          -0.93868534363239     -0.65198469904942     -0.56748012127388
  C          -1.68389864577577      0.32601218511466     -1.21341581971411
  O          -0.41081385602246      1.59330886143031     -1.56899702706018
  C           0.39337762116603     -1.46480646202636      1.36400640077576
  H          -0.97324060628341      0.20512009484906      1.37191441611813
  H          -0.49004663047227     -1.43778678242899     -1.16141751969418
  H          -2.29128397916800      1.00157289422552     -0.62789183962707
  H          -2.04078246315308      0.14394771853549     -2.21522231335356
  Cl         -0.73137440972688     -2.85895995290537      1.58302237872742
  Cl          1.77371366580725     -2.03186160103307      0.41024634030893
  Cl          0.92889434738581     -0.98301458106117      2.98415491762863
