17
Coordinates from ORCA-job NEB_product E -40.700795506030
  C           1.66628223354166     -2.63848388774343      1.18061051477661
  C           1.58682970355359     -1.25127930657004      1.75056216941415
  I           2.31226603301791     -2.32785855342829     -0.85789096374237
  H           2.49224572293949     -3.15510303220941      1.67780891151848
  I          -0.07129700900879     -0.06722006702943      1.02285844155503
  C           0.39761405220831     -3.48634833176160      1.23379760751133
  C           0.51043410239854     -4.70969385819293      0.36293143669712
  C          -0.37698885829250     -5.01962444938725     -0.56250366959686
  O           2.38877750574685     -0.75389260555085      2.46098944620948
  C           0.11713670267158     -3.91514844686764      2.68040230699213
  H          -0.46151570422037     -2.89238415165018      0.89968646088447
  H           1.37374921354030     -5.33315533379394      0.54562688635980
  H          -1.24323140201117     -4.40770103239720     -0.75215952445218
  H          -0.26603877178862     -5.89796149331059     -1.17303056429217
  Cl         -1.40783867350151     -4.82663630938048      2.74027444223449
  Cl          1.41922135623388     -4.95264297729401      3.31723326331338
  Cl         -0.03154620702915     -2.49896616343273      3.75670283461710
