17
Coordinates from ORCA-job NEB_reactant E -40.675990876320
  C           1.85061828650636     -0.01290084635540      0.42470330186764
  C           1.56391021396480     -1.30822090850241      0.32941779632471
  I           3.52508710081082      0.91202865682298     -0.39417764377118
  H           1.20018473186214      0.63491876334218      0.98846644248342
  I           2.79878563526147     -2.64587210215837     -0.76789080169110
  C          -0.62374945004878     -5.05211136400068      1.81779757340238
  C           0.22750939237377     -4.15362134141805      1.35027614572005
  C          -0.19474342641995     -2.94387050672232      0.57257831874756
  O           0.50274779187286     -1.78637895642474      0.99919433532201
  C          -0.25505502393168     -6.28031547674881      2.56780402948735
  H          -1.68913279525466     -4.95152885307681      1.66188082887509
  H           1.29005079521427     -4.25941569276327      1.51603094253651
  H          -1.25519670237381     -2.73119099317874      0.73483963142765
  H          -0.03490977162600     -3.12246651235794     -0.49923276601887
  Cl         -1.09883549298573     -6.27622156035700      4.14533697154392
  Cl         -0.80859113023068     -7.71296401712679      1.64624523929072
  Cl          1.47831984500479     -6.44716828897383      2.86402965445214
