23
Coordinates from ORCA-job NEB E -62.025745740490
  C           0.64989046788109      0.24964214183719      0.44032370339411
  C          -0.66898161200498      0.26893711893882      1.16265200627017
  C           0.85844742863263      1.57145199035172     -0.31811430576326
  H           1.47293836290792      0.19887701261637      1.15913693251179
  C          -0.71359560721004      0.59407221142429      2.62199327201479
  C           0.58081970588392     -1.01654876110427     -0.43221244521852
  C          -0.85765506669127     -1.28037426966704     -0.69321572744738
  C          -1.92922441327026     -0.26310777136548     -0.63027668477527
  O          -1.81634119200639      0.54937857081494      0.49830183343281
  C           1.42487443097294     -1.07693466678906     -1.72686821577716
  H           0.99958427630656     -1.83113953295443      0.17448738968390
  H          -1.05697988344767     -2.09738319719353     -1.37340403524713
  H          -2.90538068845928     -0.75398381542858     -0.53913188671789
  H          -1.96806671994556      0.33642247087793     -1.55410361343089
  F           2.07325427074196      1.65492817343931     -0.86341265850816
  F          -0.02860503964534      1.77608170366891     -1.29896439593137
  F           0.74049638163540      2.61167126776103      0.51474502608867
  F          -0.65268210729387     -0.55452696183371      3.36227653902643
  F           0.35158395217832      1.32401421898327      3.02855788011695
  H          -1.63972503943649      1.11885860103000      2.89921864208432
  F           1.03744027076682     -0.21087741040908     -2.66550359158442
  F           2.72428461871333     -0.87117627887248     -1.49120152826402
  F           1.32362320279024     -2.29828281612611     -2.27528413595845
