23
Coordinates from ORCA-job NEB_reactant E -62.082323214810
  C           2.03451447824741     -0.33251559087859     -0.08298927179448
  C           1.51668572842327     -1.44662779518836      0.45143425255499
  C           1.90605026941841      0.21868368916224     -1.46431315661940
  H           2.62083488963134      0.31236131659575      0.55104347465149
  C           1.82181635432505     -1.73207259919946      1.92286644195374
  C           2.75910893281081     -3.67585322691824     -1.57952042565677
  C           1.64942743229131     -3.22807135606046     -2.14284506255465
  C           0.49560628998450     -2.63784842257621     -1.39413689644098
  O           0.76099656048109     -2.43466152543392     -0.01777949732380
  C           3.88746152583948     -4.25730945518705     -2.37063163034823
  H           2.94322255151184     -3.66544526331416     -0.51538897325450
  H           1.51382231881834     -3.27357032374559     -3.21397954582025
  H          -0.33421708227360     -3.35406460289319     -1.40246181967572
  H           0.14776526950776     -1.72490468826327     -1.88433181116003
  F           2.40302617770598     -0.57327343414922     -2.43332850891228
  F           0.62792926491966      0.46998065922459     -1.82322193390378
  F           2.55339818347138      1.38235629462205     -1.56199722120840
  F           0.70208036455275     -2.07185882073580      2.58559647820049
  F           2.65945831273712     -2.79269973843108      2.00098513058413
  H           2.29254415184651     -0.88613760911532      2.44343733296728
  F           5.02173668302305     -3.55583407232004     -2.20511193164203
  F           4.16605215773588     -5.51571761907516     -1.98935385409110
  F           3.65077918499068     -4.30141581611953     -3.68747157050572
