20
Coordinates from ORCA-job NEB E -33.325933120380
  C           0.52476530461871      0.37962520619361     -0.19050004372146
  C          -0.63907426200997      0.93326154587177      0.54928188792235
  C           0.19115578346491      0.10642013697142     -1.66740077071192
  H           1.36997861284081      1.07570051841285     -0.18812137423340
  C          -1.35660918610334      2.18694376078832      0.25552078236333
  C           1.10563666572578     -2.17666081778459     -0.11987176879935
  C           0.87336387258286     -0.91546576234339      0.63012481057501
  C          -0.33894774684716     -1.06562688417533      1.56949566772306
  O          -1.08768897455494      0.13935764087467      1.52069198207069
  Cl          2.63655879048376     -2.25451400420678     -0.93885466837930
  H           0.30504225479787     -2.54734396950639     -0.74482082867720
  H           1.76735723368624     -0.69374805025902      1.22020706427214
  H          -0.04909364601412     -1.24266284143277      2.60645931092257
  H          -0.98840814042395     -1.88620468407480      1.24497530713724
  F          -0.01079578332195      1.29344560418146     -2.32747079378509
  H          -0.72812121422036     -0.47678235147928     -1.77673404156673
  H           1.02653094178534     -0.39548919746351     -2.16214934547393
  H          -0.68921691726430      3.04478998222537      0.36172898483344
  H          -2.19831370205889      2.29730284144581      0.93343105806962
  H          -1.71411988716732      2.19765132576061     -0.77599322054108
