17
Coordinates from ORCA-job NEB_reactant E -41.699207521670
  C           1.13611910438079     -0.23116007619560     -0.89634361657354
  C           2.20047167527233      0.49090248647359     -1.23653387785390
  Br         -0.53777868339152      0.60128173461561     -0.69221900989319
  H           1.15903581995022     -1.28726869603371     -0.70865534663057
  Cl          3.72470356693772     -0.31304481564817     -1.45702851914202
  C           2.31144345161742      1.49081432779570     -4.19233348610303
  C           3.26779790698279      2.12402278677550     -3.53127779761245
  C           3.17490486481240      2.48986760715279     -2.08101891915272
  O           2.14434578669976      1.82002411105417     -1.38339344033221
  C           2.37583282553669      1.06748796776957     -5.61332118924482
  H           1.38126188483810      1.21798009386505     -3.71239218220947
  H           4.18923598061029      2.41182619299567     -4.01490968101413
  H           2.92843365512090      3.55182459816493     -1.97954164004539
  H           4.14253519765456      2.31071244519121     -1.59543253523879
  Cl          0.98289133867934      1.74891462978053     -6.50235116385332
  Cl          3.85865366596526      1.55937888365381     -6.44073451057818
  Cl          2.26301195833295     -0.71966427741064     -5.68301308452226
