17
Coordinates from ORCA-job NEB_product E -41.714386238010
  C           1.91333845302180      0.14156952727021     -2.46194881438623
  C           0.48930921537787     -0.27323527047789     -2.73801385244155
  Br          1.88215281415158      0.59389461312494     -0.56063509615874
  H           2.61518707825986     -0.68696363006797     -2.56053243392494
  Cl          0.27840665987443     -2.01376759949178     -2.64830202173769
  C           2.33680432482970      1.35682522113433     -3.29548461167329
  C           3.48746643890605      2.09807024532630     -2.66871474884228
  C           3.46209977769343      3.39292397810162     -2.42049418728350
  O          -0.42744958103514      0.45342519861410     -2.92421813659115
  C           2.72478094939811      0.89514515552410     -4.70542561504547
  H           1.47648514036351      2.03029366532284     -3.39184541269374
  H           4.35134524600424      1.49678992622814     -2.42588841899647
  H           2.60610687089011      4.00347959531376     -2.65528599213908
  H           4.29852183985300      3.89209408029059     -1.96487556825441
  Cl          1.40026086589927     -0.03387963453350     -5.46318095362964
  Cl          3.07575152871972      2.30850957854541     -5.71913759019764
  Cl          4.16723237779246     -0.14667465022518     -4.66991654600417
