21
Coordinates from ORCA-job NEB E -33.194187149110
  C           0.01015241400045     -1.41494754347539      0.14002635737652
  C          -0.89591815715705     -0.42775415583834     -0.30350984975411
  O          -0.33973164194230     -2.23125213358183      1.16740994778441
  H           0.63807492856406     -1.93741539419928     -0.57203167134084
  C          -0.85669778466911      0.13661680962631     -1.70580101532381
  C           1.27349169026649     -0.15991880781922      1.03750084716439
  C           0.44572319800945      0.43895756367083      1.99066513952639
  C          -0.59997017373458      1.25873972916914      1.54618167284855
  O          -1.59905866636641      0.14853626138010      0.61000802128799
  Cl          2.52552310767852     -1.23118710737179      1.59701769647982
  H           1.60591292109925      0.40616520967813      0.17959281306394
  H           0.35441416725263     -0.04343923509246      2.95371958844341
  H          -0.40228560933809      1.96051587825549      0.74712797317886
  H          -1.31226631802282      1.61423737947554      2.27567800044412
  H          -1.05131154826891     -1.79355899125376      1.66209062305919
  C           0.49777184357518      0.64669221965151     -2.19766080135066
  H          -1.58771795696175      0.94655551070217     -1.74655854671571
  H          -1.19633831396068     -0.65176117803965     -2.38368227305928
  H           0.83050207702321      1.50311113130621     -1.61576341891847
  H           0.40640350470740      0.96401273029307     -3.23398499648058
  H           1.25332631824508     -0.13290587653678     -2.14802610771414
