21
Coordinates from ORCA-job NEB_reactant E -33.227358014130
  C           1.71985306754272      0.07841684447582     -0.07464776785945
  C           1.31693489560212      1.34482232988623     -0.17568693743836
  O           1.70916736566710     -0.63173681451579      1.07670931998434
  H           2.06655714905988     -0.49238550537061     -0.92030863860325
  C           1.31540649646045      2.12578677008622     -1.46346418053076
  C           3.98573989114866      2.22856777888349      1.74815832136437
  C           2.78059887801375      2.34968897071278      2.27891529828463
  C           1.62815699353083      2.96753497936396      1.53931718999587
  O           0.80180556639886      1.95931788868835      0.96819010237030
  Cl          5.28490936677605      1.44001585401648      2.54683742160021
  H           4.25357163375577      2.62454964675790      0.78060394838903
  H           2.55887519706171      1.92006057753224      3.24497891629175
  H           1.98704749472460      3.65367114442893      0.76459702537784
  H           0.97770495457012      3.50946424858317      2.23001419162306
  H           1.34823617006474     -0.05570474063231      1.76780600299707
  C           2.71677252807752      2.48383929191237     -1.96226895957373
  H           0.73229056795530      3.03616762746510     -1.31259710440040
  H           0.81268217450342      1.53350607303959     -2.23101612663814
  H           3.21056911638571      3.17854118671850     -1.28669978613094
  H           2.65448477167480      2.95210663064088     -2.94198681574631
  H           3.32863572102590      1.58946921732670     -2.04415142135712
