21
Coordinates from ORCA-job NEB_product E -33.232729448960
  C           2.35294256130878      0.67988793010734      0.44893847586187
  C           1.16099807206425      1.43059838959665     -0.15971170742525
  O           1.89193976762255     -0.22089312717650      1.41051220236065
  H           2.88922337840762      0.09721726154020     -0.30566648507585
  C           1.17988828083655      1.73062853903034     -1.63461451940075
  C           3.31190951282691      1.74049579599529      1.05312640811510
  C           2.72658290276162      2.41858261962972      2.24330691267667
  C           2.49917133905007      3.71745800392077      2.30355429346818
  O           0.22226945116534      1.69643080274655      0.55091679226083
  Cl          4.83009622391029      0.91088390779500      1.54785900275273
  H           3.60023130476908      2.46403512058697      0.28952129012648
  H           2.50159091433836      1.77152998580935      3.07922516791969
  H           2.72904360160830      4.37579074591630      1.48169327364354
  H           2.06863480408440      4.17426236212179      3.17699371504250
  H           1.12782910991206      0.18750130941108      1.84674865634400
  C           2.46682907212185      2.34614694563201     -2.17492128573186
  H           0.33040627832180      2.38090670512503     -1.85381946513968
  H           1.00470523895612      0.77196942428571     -2.13385304005753
  H           2.65129927318158      3.31399963951143     -1.71513170631319
  H           2.36920000599049      2.49696171730887     -3.24736104896044
  H           3.32390890676199      1.70120592110609     -2.00151693246769
