19
Coordinates from ORCA-job R E -29.269060313910
  C          -1.81528963033841     -0.17981927799325     -2.71628389550364
  C           0.40347767024135     -2.21545149862973     -2.84829159543348
  C          -0.62740150003903     -2.22289566060365     -2.00915001036664
  C          -1.61405983893974     -1.17031959247910     -1.85179695978660
  C          -0.24751142257055      1.91929073196877     -0.46627975136531
  C          -0.34251804908847      1.06897405846087      0.53694928237922
  H          -0.75866499491614     -3.06297148975457     -1.34057714744277
  H          -2.21761798475828     -1.22219248541482     -0.95676400600430
  Cl         -2.98646558108285      1.04643929722758     -2.45515154036059
  H           1.09418402890685     -3.03947162313441     -2.89434672214160
  H          -1.27911597488799     -0.06762648167785     -3.64493969849995
  H           0.60212445359536     -1.39127660256053     -3.51214486256828
  H          -0.85923419586447      2.80234764411063     -0.52061749171797
  H          -1.05217147937701      1.21984023215811      1.33845129703040
  H           0.45210189055779      1.76830348203853     -1.27200522416889
  C           0.50274774133627     -0.15608145505126      0.67585812389305
  F          -0.25570151197145     -1.22396198364791      1.10217213707874
  H           1.27752098498644     -0.01090633539035      1.44053319031426
  H           0.96189539421035     -0.45035095962706     -0.27297512533565
