20
Coordinates from ORCA-job NEB_reactant E -39.405698866750
  C           1.33187156426804     -0.55806073492605     -0.05726883739690
  C           1.95071110217111     -1.62374794891786      0.48367747458970
  C           1.95787679815984      0.43674852142514     -0.93745788348567
  H           0.29227220329723     -0.36802680028686      0.16033210067902
  C           3.38133316064381     -1.99953568941041      0.27201698916730
  C          -0.98095935263929     -3.38192303791619      3.67023759028549
  C          -0.40291504436063     -3.52286507493456      2.49114208675607
  C          -0.02664493891610     -2.36464207536714      1.62145556270913
  O           1.34419762392139     -2.50990538362127      1.29270164225595
  Br         -1.47200639603188     -4.85131585365926      4.74307404442470
  H          -1.23759733206584     -2.42963203562438      4.10770437616504
  H          -0.15604387018300     -4.49805428262049      2.09829730172982
  H          -0.19825771500012     -1.41417436102278      2.14293521079885
  H          -0.63321057046420     -2.38540986952423      0.70350541386398
  Br          0.63463109110952      1.73324982113415     -1.55326511368870
  Br          3.39209658343612      1.49104819396561     -0.02567041593036
  Br          2.78207455431650     -0.33780381565189     -2.56169155763131
  H           3.64114064819974     -2.77962754481984      0.98241799965681
  H           4.04404414438441     -1.14942455647526      0.41475010079913
  H           3.53008574575337     -2.38439747174647     -0.73599408574803
