20
Coordinates from ORCA-job NEB_product E -39.405413278330
  C           1.64163169699567     -0.84037876763657      1.49518018611231
  C           3.04681662214248     -1.46687544759701      1.26660701866265
  C           1.29189957496581      0.01056628676373      0.27803073551476
  H           1.80378986767736     -0.12483961211852      2.31718041688886
  C           3.17216176857912     -2.88562859896326      0.81520451884709
  C           0.48511114815165     -1.74791761294434      1.93730649471842
  C          -0.08391271049387     -2.70817092100710      0.95209469740736
  C          -1.35775326701788     -2.67980904756250      0.59817466718508
  O           3.99619654639265     -0.75525801784418      1.45178783541475
  Br          1.07355523145031     -2.73895444401552      3.56960730326791
  H          -0.31965320521001     -1.11133509917522      2.31747485141871
  H           0.57392314295906     -3.47094296200659      0.56623300467251
  H          -2.04489807144057     -1.94285053495897      0.98129306975815
  H          -1.75614915267327     -3.38721015830847     -0.10698789652352
  Br         -0.45261513395069      0.89299660665270      0.49675497060320
  Br          2.60173622758947      1.43927035774365      0.02018639999825
  Br          1.20017796164504     -1.00353529244593     -1.38424550675062
  H           2.74209337708326     -3.56312895914055      1.54933082250307
  H           4.23018006700489     -3.11350045441585      0.70480416968147
  H           2.67500830814951     -3.04019732101950     -0.13991775938042
