18
Coordinates from ORCA-job NEB E -30.336802449140
  C           1.03018419643980      0.84327073934916      0.44612154675415
  C           0.87197053243081     -0.25179747168074      1.27598607132875
  O           0.27631127761698      1.97145237970637      0.62005310356879
  H           1.98894252612897      1.04877258239025     -0.00675154990290
  O           1.83289245827102     -1.22976523481870      1.20374615282841
  C          -0.08665762897403     -0.06728779205459     -1.19403997356109
  C          -1.28103564474884     -0.25330002510159     -0.50507009929928
  C          -1.36118895588320     -1.18900047133997      0.52631644346943
  O          -0.25734163380818     -0.52126821600398      1.80847008549160
  N           0.01220725560472      0.87066432488441     -2.19602920774746
  H           0.59803411058640     -0.89992133499850     -1.29655821851302
  H          -2.00412211351983      0.55087185249737     -0.53285622152263
  H          -0.83352028051448     -2.12618053968298      0.41065134303433
  H          -2.27012641374542     -1.25662096111266      1.10232949581967
  H          -0.47274938370134      1.72905087650329      1.18549552523601
  H           1.52182288489192     -1.98715795015885      1.71712945594859
  H          -0.50898847021324      1.71960293486926     -2.02602967041670
  H           0.94336528313795      1.04861430675243     -2.53896428251663
