18
Coordinates from ORCA-job NEB_product E -30.367096595570
  C           1.14369212204034      0.14210506790563     -1.55307632705039
  C           1.00554393031393     -0.70099079727899     -0.29138435689843
  O           0.30163406068285      1.25460308923230     -1.46777258757392
  H           2.17653225058585      0.50181688378026     -1.66859518116342
  O           1.90399803001096     -1.67350598442539     -0.12243266516498
  C           0.80444109452487     -0.73500828142436     -2.79501541781103
  C          -0.65019155226020     -1.12092890656974     -2.76447607721251
  C          -1.08352002127391     -2.36265256174969     -2.66150026797078
  O           0.11881708317559     -0.50282590399767      0.49134055782989
  N           1.19109125860584      0.02941672306802     -3.97083552568981
  H           1.42344424290637     -1.64318431219641     -2.77793948415077
  H          -1.34074826232428     -0.29296221950391     -2.85282087377152
  H          -0.40550481276852     -3.19644202508832     -2.57397358629762
  H          -2.13327942642621     -2.59973378752799     -2.65456027225764
  H          -0.31700432664986      1.08747115961188     -0.73636363233769
  H           2.56842936932192     -1.69607137531058     -0.82499440198237
  H           0.76130950925486      0.94837258219034     -3.92354945014450
  H           0.86061545027962     -0.43017935071538     -4.81275045035250
