18
Coordinates from ORCA-job NEB_product E -40.051523343430
  C           1.86394459802653     -0.12129595561314     -2.36797526696940
  C           2.97558231049534     -0.88359221294721     -1.64559455258387
  I           1.22878655693949      1.42431506776111     -0.98519595240549
  H           0.98068815560424     -0.75012391789790     -2.51018540794114
  O           2.68266802858123     -2.14245673788068     -1.31547660778640
  C           2.25612066780229      0.52861187730830     -3.70259207704070
  C           3.44355890792041      1.44477380836148     -3.58119670852542
  C           3.39854991009199      2.71646428866475     -3.93133849470171
  O           4.02494376173295     -0.39246498743205     -1.35698043283987
  C           2.51536312263470     -0.51097441972887     -4.79413918102381
  H           1.39177026999715      1.11658995978603     -4.04576155567149
  H           4.34176297915297      1.00504621474540     -3.17318027546422
  H           2.50626057896014      3.17461781772094     -4.32776449672204
  H           4.25928612212392      3.35301140310194     -3.83063769430001
  H           1.81035850170432     -2.45541048486117     -1.59187652047183
  Br          2.78760391019379      0.40370805011113     -6.50133916923444
  Br          4.07209456281845     -1.64181607783703     -4.45261018170320
  Br          0.95895705522008     -1.69700369336303     -5.03095542461497
