18
Coordinates from ORCA-job NEB_reactant E -40.035050982490
  C           1.20793726302635     -0.09314805823399     -0.25446114240954
  C           2.20230868567728      0.01469072099467     -1.13286863579949
  I          -0.23146706408100      1.41990131256916     -0.11037459551716
  H           1.09476950981146     -0.92154586609985      0.41710263358891
  O           3.17574348346715     -0.92233841865316     -1.28819499347428
  C           2.99496913066214      0.64027573417618     -5.33405341256005
  C           2.98928059161477      0.23417444680879     -4.07506235421334
  C           3.31081821551255      1.12696440354534     -2.91642658820486
  O           2.29915660457998      1.09507211289513     -1.92798983950921
  C           2.71438497236790     -0.19748187178612     -6.51936540598114
  H           3.23875665284064      1.66550434346726     -5.58675159501775
  H           2.74345055596365     -0.78552899598826     -3.81022853858785
  H           3.36795548804722      2.17294308909486     -3.22482250985911
  H           4.27228840239056      0.81821602161444     -2.48467191586015
  H           3.05455215658141     -1.64163283805511     -0.65944826334995
  Br          1.25559374121770      0.61409527421943     -7.57123581148013
  Br          4.32529651211778     -0.25408446378385     -7.66611796924736
  Br          2.21240509820246     -2.02687694678491     -6.12382906251751
