21
Coordinates from ORCA-job NEB_reactant E -33.852985414890
  C           1.69147914235566      0.04451081126605     -0.14689993977281
  C           1.11364054297497     -1.01280219575869      0.44432644667190
  C           2.19195072727743      0.04959151856578     -1.55086119045165
  H           1.81348569960851      0.94956492234315      0.42970959536313
  C           0.68550322691658     -0.89690126842343      1.79140375314393
  C          -0.87433730423704     -5.07607734980194     -0.65013534078609
  C           0.24834413347431     -4.43548306104827     -0.39067933640055
  C           0.32085940843098     -3.24521311205847      0.50855308272021
  O           0.92507008309848     -2.19305912805913     -0.22227370442830
  F          -0.90383035475728     -6.14924216643106     -1.45050327793962
  H          -1.85128621622867     -4.84028943408899     -0.25249720892246
  H           1.17481204707691     -4.74723838695236     -0.84859902104063
  H           0.93058554848075     -3.48559614398738      1.39367942123977
  H          -0.68192174626465     -2.95417226965874      0.84973625386638
  C           3.64233482456199      0.52623893190634     -1.62011499129163
  H           1.56868329229326      0.72583231951212     -2.14462872534937
  H           2.10159073746147     -0.95266933072137     -1.97040087518308
  H           3.73550694643604      1.52973689991787     -1.21064901483694
  H           3.98417610434300      0.54090240474753     -2.65190105601662
  H           4.28830393647004     -0.13871140561117     -1.05156907386072
  N           0.34284922022727     -0.79052255565784      2.88150420327513
