21
Coordinates from ORCA-job NEB_product E -33.852819073480
  C           1.41021017800885     -1.58847322576101     -0.59128762813078
  C           2.52181932181999     -1.82523889542074      0.41812125137785
  C           1.98356763906222     -1.12420762143017     -1.93320737695551
  H           0.71698936731070     -0.84276678440578     -0.18578736699526
  C           2.04235073164907     -1.76444020374162      1.79297258436995
  C           0.60422600813447     -2.90379488295636     -0.75080501331018
  C           0.00039043110661     -3.37261091686352      0.53961647301744
  C          -1.15543571043624     -2.93965961668325      1.00548055442938
  O           3.67427981954098     -2.03067174901780      0.15159143181781
  F           1.43890030608447     -3.87948258794398     -1.24915050478404
  H          -0.16857527759255     -2.74732454472911     -1.51592337843648
  H           0.58763683210131     -4.10528667921022      1.07484697914035
  H          -1.54815326405473     -3.28547551548428      1.94442583675468
  H          -1.75041183112542     -2.21688994952136      0.47103592562877
  C           2.55239148110314      0.28659826236137     -1.84601179824022
  H           1.19218251602575     -1.15395724807516     -2.68517381866473
  H           2.76749934205617     -1.82012884805091     -2.23658147951975
  H           1.78675915507262      0.99357703196899     -1.53091653967936
  H           2.92623725626343      0.59683281831207     -2.81809602154232
  H           3.37601940261296      0.32847309667365     -1.13745109691461
  N           1.67671629525619     -1.66587194002082      2.87330098663703
