20
Coordinates from ORCA-job NEB E -45.558482377780
  C           0.51032713398840      0.22695158697985     -1.05893656449223
  C          -0.18470700569118      1.42535260363297     -0.92249177572132
  C           1.98305800067973      0.21563685502288     -0.71103147490677
  H           0.28473998489462     -0.36126232639042     -1.94277834510515
  Br         -1.75494643523740      1.64238074140541     -2.06231392727873
  C          -0.23646679939970     -0.75825172051101      0.56740590331110
  C          -1.10835602710567      0.11721729901508      1.20031915982073
  C          -0.58343343646099      1.38506263461033      1.56229126673547
  O          -0.18156845249158      2.13079517649700      0.12682314931099
  C          -0.78804307384372     -2.03786770916867     -0.00311745307156
  H           0.74617519138856     -0.89883086939311      1.00000178873029
  H          -2.16282002096687      0.05190566617853      0.96422278024358
  H           0.39088493577514      1.39455482204258      2.04024931128009
  H          -1.27234580533551      2.10491465981505      1.98604012478854
  F           2.68086380390728      0.74600413786500     -1.76719285916350
  H           2.36029957936583     -0.80327633796688     -0.57720553682073
  H           2.20835120130750      0.84366821538173      0.15714929722532
  F          -1.85091388516559     -1.84593196264148     -0.78818910502406
  F           0.12825669971746     -2.69054552072800     -0.73616499317204
  F          -1.16935558932632     -2.88847795164683      0.96491925331000
