20
Coordinates from ORCA-job NEB_reactant E -45.594060698460
  C           1.64547050417434     -0.11277114457905     -0.15369043153824
  C           0.71412422177891     -0.30408760611081      0.77191327639419
  C           2.44056482522248     -1.23172363013947     -0.74523117566147
  H           1.86792729747308      0.87952550833599     -0.50994126015125
  Br         -0.24203853006524      1.21828458394604      1.46293920836262
  C          -0.20943040999086     -3.77660822008252      3.87605231926260
  C          -0.40630610519666     -3.12158693514983      2.74423992088622
  C          -0.07019584511604     -1.68308615626390      2.54206981011829
  O           0.31310344278349     -1.51309220350343      1.18442642872578
  C          -0.59262134319243     -5.21173762838726      4.05823904075062
  H           0.22736445649532     -3.32897399591466      4.75597277122136
  H          -0.84224984051863     -3.61032236178306      1.88364293402851
  H           0.73388738995284     -1.36036563610283      3.21482206736653
  H          -0.96429795785744     -1.07505398274591      2.75217841116939
  F           3.76871396835144     -0.88681483577148     -0.80211319663644
  H           2.12944498482310     -1.43357517155808     -1.77791027466153
  H           2.36217010477754     -2.14357327710498     -0.14568522503975
  F          -1.11518269270037     -5.76783260758311      2.95875852914367
  F           0.46214588510113     -5.96722713110759      4.40847588356987
  F          -1.50299435629600     -5.36357756839406      5.03604096268904
