26
Coordinates from ORCA-job NEB_product E -39.901593501070
  C           2.71666357515624      0.35603119156771     -1.32518231014412
  C           1.43157137026709     -0.44973984366403     -1.15469971967563
  C           2.92281625482704      1.23048324407599     -0.08185507052308
  H           3.57376925074734     -0.32212364731314     -1.38519629463396
  C           1.52525839601951     -1.92931491532837     -1.44928139358425
  C           2.64057128092163      1.16341799122481     -2.64766241101197
  C           1.32645279194287      1.87495024928058     -2.80492904455243
  C           0.53608242848855      1.72012112132280     -3.84914383130380
  O           0.41172656197628      0.06685750438348     -0.77676191304588
  C           3.79826283061140      2.16567966773839     -2.78053311605341
  H           2.75540164336903      0.45434569383222     -3.47409539049792
  H           1.05894152725238      2.55448228432381     -2.01009585480206
  H           0.78106820796230      1.04920228387420     -4.65776480905070
  H          -0.39277471024987      2.25480692773818     -3.94032903414913
  F           4.26753766898263      1.39404945024075      0.14705781554405
  H           2.51337845686770      0.74213599771143      0.80844577227870
  H           2.48884443487015      2.22585007396971     -0.18603463616569
  C           1.94452808240596     -2.23412120008898     -2.88622691890314
  H           0.54865503178131     -2.37324467932668     -1.24903849627914
  H           2.25193199227808     -2.36335790770731     -0.75746048709206
  H           1.26183514538592     -1.75952852859298     -3.58668778640278
  H           1.91476620673981     -3.30791705257265     -3.05377523873203
  H           2.95512570217133     -1.88881317229531     -3.08878697474041
  F           3.57191009595543      3.30873881978291     -2.05970741582915
  H           3.90163522590050      2.48023208932055     -3.82444921311116
  H           4.74124054736937      1.74467635650192     -2.41760622753884
