21
Coordinates from ORCA-job NEB E -33.347374326350
  C          -0.14614136676029     -0.77217639846844     -0.08680651524798
  C          -0.49822299856166     -0.33528469492116     -1.38269872893966
  O           1.21179788606065     -1.01936133562475      0.19373054781798
  H          -0.78229279055073     -1.57461992221940      0.30301845992942
  H          -1.51068729055188     -0.51946693946085     -1.73473707010207
  C          -0.34564523237221      0.70938008565275      0.94374785995663
  C          -0.18164915621625      1.86371460174861      0.13375939957326
  C           0.77647652514616      1.68065287056856     -0.94418334724806
  O           0.05524940895828      0.74987945869497     -1.87331690450148
  C          -1.63927310158945      0.60345185586549      1.72389267035142
  H           0.51676400860666      0.46386537333428      1.56126631702225
  H          -1.08041865343595      2.40680778108717     -0.13608697501441
  H           1.70379493630663      1.19832964561356     -0.62986577616154
  H           0.96544104601403      2.55109896545823     -1.56680627937918
  C           1.68303149378444     -2.20278977218474     -0.40593450108483
  H           2.71731522175920     -2.31449212739550     -0.08605326572557
  H           1.63818318147771     -2.14412784398905     -1.49901969796374
  H           1.10108259356935     -3.07157887748485     -0.07508108906165
  F          -2.71825645331501      0.55263971283453      0.87102429324298
  H          -1.78736849630413      1.48188583708744      2.36143429313126
  H          -1.67918076202555     -0.30780827619684      2.32871630940496
