21
Coordinates from ORCA-job NEB_reactant E -33.389250333270
  C           0.93589263017224     -0.28010848594650      0.45748439481706
  C           0.71096776816523      1.03059239231199      0.46314797196931
  O           1.93159554911441     -0.87599509372162      1.17794303976099
  H           0.31703987162662     -0.92505451296676     -0.15284139186257
  H          -0.10392170418884      1.43693726444780     -0.12482386566050
  C          -0.18439314715125      3.67628480920377      3.67327761312646
  C          -0.17504054885554      2.98680952385822      2.54603087748219
  C           0.85227900147738      3.14678578295105      1.46452112562731
  O           1.48567441897154      1.92834659921623      1.14359311053152
  C          -1.20374780159495      3.52192010378009      4.75622857564785
  H           0.56604444674529      4.42595524739282      3.88306653931172
  H          -0.92790023250378      2.23218151205348      2.36193663858226
  H           1.65134993347435      3.81904190382288      1.78614866880239
  H           0.37046384691784      3.56755409310994      0.56545420989694
  C           2.06348874279420     -2.25987326420594      0.98051982479789
  H           2.87758111011027     -2.58541063475432      1.62568419783862
  H           2.31170763080805     -2.49578380732002     -0.06085101710548
  H           1.14725155575899     -2.79462831737489      1.25699870894109
  F          -2.18018736918598      2.61715624660108      4.42661528431527
  H          -1.71090554720006      4.47466260630893      4.95587721686471
  H          -0.73724015545600      3.16132603123177      5.68198827631495
