21
Coordinates from ORCA-job NEB_product E -33.395162004000
  C           0.60448780847131      0.78638403607654      1.71158503147392
  C           1.12121750278769      1.03858371168100      0.30949952728276
  O           1.51323519681940      0.09456760403885      2.53169454062328
  H          -0.33845470761764      0.21643181848987      1.60849940927753
  H           0.38527628692186      1.57960298720336     -0.31906466485188
  C           0.28955985246733      2.13455058463670      2.40357164528748
  C          -0.60532518002123      3.00426940785123      1.57103328369840
  C          -0.30266377869270      4.23249844707493      1.19595837893862
  O           2.18852255846366      0.70521931276874     -0.11543329023130
  C          -0.36984975212090      1.85289082110189      3.75836940067229
  H           1.24066067403232      2.63625483279792      2.60135327235709
  H          -1.56508935193554      2.56955532968786      1.32521335813359
  H           0.64475485671394      4.68376620700770      1.44111794582109
  H          -0.98553389369974      4.83558274180603      0.62303762276058
  C           1.65760679697784     -1.27249202439304      2.21940780789179
  H           2.32782195469270     -1.68112126678910      2.97274608969927
  H           2.09398101221747     -1.41880629552806      1.22806520765107
  H           0.69107525378296     -1.78959753982475      2.26963362246413
  F          -1.57491652419977      1.21684431307255      3.58470774132509
  H          -0.57805939053682      2.78522926096751      4.29140604692052
  H           0.25799282447586      1.19158571027225      4.36109802280467
