17
Coordinates from ORCA-job NEB E -29.839616056090
  C           0.41472096100050     -0.76497204065458      1.01789248037010
  C          -0.94680942574942     -0.58482564404715      0.74172140734523
  Br          1.19765615991066      0.33917612276062      2.36418357766277
  H           0.82130415626408     -1.76703992602030      1.06197468856777
  N          -1.61947380177009     -1.61654458350302      0.10765479849367
  C           1.17137460752296      0.05039083594324     -0.69196123472847
  C           0.57313518911017      1.31124479021182     -0.65956438371256
  C          -0.82711059587865      1.40053440541059     -0.73355508161891
  O          -1.44565144942925      0.59272983856057      0.66637621506584
  O           2.50720543242572     -0.11827503873267     -0.56142998553633
  H           0.75613306768307     -0.71666490553525     -1.33826801337709
  H           1.11195231262719      2.10628898665836     -0.16021790900447
  H          -1.32917889244418      0.78565326700563     -1.47196257656526
  H          -1.27380660579709      2.37450694043454     -0.59708799624190
  H          -2.59381810239739     -1.43788164965297     -0.07714613929953
  H          -1.39768108279433     -2.56146810657210      0.37088124655825
  H           2.88004806971605      0.60714670773267     -0.03949109397910
