17
Coordinates from ORCA-job NEB_product E -29.888841204970
  C           3.25810634416834     -0.63018006634453     -2.13448990977724
  C           1.77358249708045     -0.74171113495343     -2.47780599076284
  Br          3.66270739259314     -0.65880569968946     -0.23350235493020
  H           3.78414177688011     -1.49027739478783     -2.55652934937215
  N           0.89819391774183     -0.77975661433714     -1.46338375965122
  C           3.83761615538549      0.64344288755901     -2.76853594296127
  C           3.20302810071573      1.87044748241194     -2.17241683371979
  C           2.21349190462660      2.52998614093214     -2.74264935243346
  O           1.44713310868958     -0.78075630576355     -3.64361231640115
  O           5.23111277103216      0.60110729588126     -2.56306545515369
  H           3.59989889874077      0.58730122810813     -3.84411674183550
  H           3.61130040339861      2.17244942314294     -1.21654329779830
  H           1.80443249493639      2.22376597149413     -3.69156655821155
  H           1.76747256285302      3.39305311999525     -2.27926132069770
  H          -0.08131083529949     -0.85062220472619     -1.68365313863800
  H           1.18251534977881     -0.74290936231678     -0.49820088195810
  H           5.61857715667847      1.43986523339414     -2.83236679569785
