20
Coordinates from ORCA-job NEB E -40.667659000000
  C           0.53782687854886     -0.70231769192755      0.46831923599406
  C          -0.70753649675307     -1.13898522486600     -0.08213661875531
  C           0.41299511786917     -0.22518147246290      1.90517776849578
  H           1.37831682645676     -1.37450735838115      0.30386924594062
  N          -0.63760215618470     -2.07925177515375     -1.18928573372029
  C           0.93501806269683      0.69691108062231     -0.58881110030036
  C          -0.20567443702465      1.53447316652935     -0.38596565954455
  C          -1.46367761105441      1.08746587805623     -0.83031865459761
  O          -1.73044572391314     -0.38141215839895     -0.02486835406122
  O           2.18562276720375      1.11866668938640     -0.27585122282630
  H           0.99377884825558      0.20609824583093     -1.56074171067812
  H          -0.15202075000286      2.27239404574217      0.40356682878935
  H          -1.53743594371524      0.68894971929280     -1.83719283375867
  H          -2.32732658026871      1.67004493288821     -0.53929390758207
  F           1.36103248803368      0.70632256696035      2.25057184975300
  H           0.55015461813244     -1.07449405088465      2.58262478559667
  H          -0.56286511586474      0.23954046851862      2.07748309041644
  O          -1.54184679601452     -2.05133691753218     -1.99673882794858
  O           0.32274661554080     -2.82660726708342     -1.22398126601781
  H           2.18893938805815      1.63322712286318      0.54357308480497
