20
Coordinates from ORCA-job NEB_reactant E -40.688888564200
  C           2.10453626329572      0.21173992485616     -0.34418731660516
  C           1.48086585801711      0.30083460145796     -1.52135958455330
  C           2.01144932467952      1.12314932361066      0.83449763988087
  H           2.78176545252534     -0.62353456255322     -0.22581020180292
  N           1.75066213210346     -0.78204293849195     -2.49588933729347
  C           3.02601474311263      2.82517158219067     -2.53936242076759
  C           2.08067905662499      3.10684657791232     -1.64865467557883
  C           0.68701902566062      2.56897258185102     -1.76573400278850
  O           0.63619234352720      1.17042249546004     -2.07283934182251
  O           4.30502324879084      3.22667295972080     -2.48688682379024
  H           2.83320079262246      2.21886092806717     -3.41477928888032
  H           2.30559158208459      3.71590458126009     -0.78519722000097
  H           0.15306869333737      3.02039435143330     -2.60878161249655
  H           0.11131077219488      2.76740038230259     -0.85496219786013
  F           3.19655536379258      1.81185575320243      1.00173189715200
  H           1.86949746044404      0.53498516073760      1.74854111974014
  H           1.22323224442672      1.87268266164101      0.75030768519309
  O           1.48210196144160     -0.55179445935923     -3.64654312608559
  O           2.22621132048869     -1.80801807358079     -2.07014927110192
  H           4.46702236082962      3.73329616828138     -1.67944192053809
