17
Coordinates from ORCA-job NEB E -37.204337427270
  C           0.86545130743081     -0.49299371533726      0.60117431278929
  C          -0.60666023546550     -0.28999788157448      0.46627821237211
  Br          1.45024397337869      0.41943267815943      2.25766126989269
  H           1.14317258847323     -1.54497696861394      0.77664210735726
  C          -1.42823128449664     -1.04193904188567      1.48688667252322
  C           1.46277825579813      0.16261591064744     -0.62512437901323
  C           0.54664855667562      1.30084983446031     -0.92558600304321
  C          -0.75705899422075      0.90037562972206     -1.48390092815487
  O          -1.29148883769605     -0.11977331975138     -0.69385970620055
  I           3.53512450062799      0.73284324905683     -0.46685522641740
  H           1.44998353070609     -0.57810827305016     -1.43809669726944
  H           0.94610031158843      2.26847490324607     -1.17560452538353
  H          -0.69876299140004      0.55168040277841     -2.52668054559036
  H          -1.47615891405733      1.72814467191220     -1.46210796523858
  F          -2.74460735872531     -0.84111518087825      1.30615981028225
  F          -1.22404015493554     -2.39321686832939      1.38087945882920
  H          -1.17249425368182     -0.76229603056223      2.52213413226514
