17
Coordinates from ORCA-job NEB_product E -37.273922672500
  C           3.25293330968300     -1.04915662782923     -1.02864696147364
  C           1.78204050947449     -1.02204442576538     -0.68713790770191
  Br          4.13548175421922      0.40057787941063     -0.07281043614390
  H           3.69961411933821     -1.97932748712317     -0.66367816496512
  C           0.99823425456771     -2.28104848489429     -1.13695266952864
  C           3.42195093113833     -0.93320212339437     -2.54375277118158
  C           2.86093866354172      0.32952722231881     -3.09257548277144
  C           1.98619356210193      0.36152067180461     -4.08163499248486
  O           1.21525207061066     -0.12195353813220     -0.14587537791944
  I           5.54407377747880     -1.07493871033418     -3.04467656952708
  H           2.97286891038442     -1.80386131211993     -3.02554702889157
  H           3.22160999264630      1.24075424927222     -2.63434549153667
  H           1.62045572906098     -0.53661834692734     -4.55205603275453
  H           1.59579139526115      1.29239683032909     -4.45265323990726
  F           0.54942310071862     -2.09786061648358     -2.40013264251847
  F           1.79034445397535     -3.37520355180344     -1.16621230100306
  H           0.13559346579909     -2.47706162832825     -0.48421192969084
