17
Coordinates from ORCA-job NEB_reactant E -37.265742037980
  C           2.05497281653499     -0.29411994209595     -0.19600877954653
  C           1.55404340167683     -1.09657874812125     -1.13694837068635
  Br          2.93253853360384      1.37205626651095     -0.38602882287155
  H           1.97273782838206     -0.57315454897943      0.84045952344759
  C           0.87755979146436     -2.38008501854382     -0.66564195204197
  C           4.18537843713619     -0.70192384957027     -4.48140579410521
  C           3.60995844728984     -0.32192006209721     -3.35760559296365
  C           2.13514535941451     -0.06002319309188     -3.26106986581080
  O           1.47586263776948     -1.04424762930490     -2.47453471558319
  I           6.24344846765250     -1.07424460801627     -4.64185371480629
  H           3.65253267429593     -0.83568262444598     -5.40778769599588
  H           4.18301254716605     -0.20707408065456     -2.44939421303243
  H           1.66611310860733     -0.15705512369025     -4.24343585564446
  H           1.94440714322212      0.94567941332624     -2.87474878199022
  F          -0.41739057434646     -2.39858714630267     -1.04826911567684
  F           1.46515823879445     -3.45470777595187     -1.23387303615932
  H           0.91132114133596     -2.51053132897089      0.42604678346713
