17
Coordinates from ORCA-job NEB_reactant E -41.695659006310
  C           1.63317553842108      0.03428581521591     -0.12370472396820
  C           0.95484547669411      0.00577119830883      1.03031803197611
  C           2.09648105427789     -1.21055895134386     -0.78226505674071
  H           1.86133259317171      0.96940061188944     -0.60393585056583
  Br          0.40627647574629      1.66363686172573      1.79060705805231
  C           0.15815749115138     -3.03104268726572      4.44046214149056
  C          -0.25313186840733     -2.55378720502105      3.27733064430320
  C          -0.07538363113763     -1.12348827147929      2.87816695139457
  O           0.65510956200030     -1.11636349324520      1.65675393615318
  Cl         -0.05870616869971     -4.66413723813133      4.90069245147990
  H           0.64067488216965     -2.42565669771253      5.19368287866345
  H          -0.72078476083415     -3.18906611866861      2.54078702184462
  H           0.46987673583035     -0.56636637860916      3.64930071734999
  H          -1.05592715762592     -0.65242127850488      2.72037334171656
  Cl          0.72020155585950     -2.28671535210332     -1.17352270372862
  Cl          2.95268792564173     -0.83600486836196     -2.28417132756334
  Cl          3.20331429574075     -2.13388594669299      0.28342448814225
