20
Coordinates from ORCA-job NEB E -49.107876000360
  C           0.40813680414741     -0.76277973261759      0.78367331174878
  C          -0.91280544346641     -0.71706978032124      0.29716774386264
  N           0.66446896846826     -0.30312097970835      2.12831105027587
  H           1.01281813690079     -1.63339792997964      0.55072101244922
  C          -1.18615818731061     -1.73282050170270     -0.83330005965702
  C           1.26978455685902      0.79553087374061     -0.29196091205815
  C           0.16311793724402      1.45565780413712     -0.85722106968155
  C          -0.86172620892375      1.91124797783459     -0.05891479817626
  O          -1.68636138834240      0.24858912962049      0.42600153803308
  O           2.19425223840696      0.19474176058048     -1.04250687215493
  H           1.70607503828529      1.20682207637334      0.61232783199614
  H          -0.03183354658881      1.27144473579990     -1.90861291789090
  H          -1.73828627045943      2.34930006516978     -0.50663732990463
  H          -0.66842339236768      2.17317629177710      0.97035481671414
  O           1.39303665092371     -1.00772664565298      2.78699309831651
  O           0.14700022398266      0.71986848763393      2.51049652875286
  F          -2.44262823379671     -1.71753452057741     -1.25360892981670
  F          -0.40680449589561     -1.43504640078203     -1.90514600915930
  F          -0.87570799046091     -2.98527618433799     -0.48710492889940
  H           1.85204460239421     -0.03160652698740     -1.92103310475040
