20
Coordinates from ORCA-job NEB_product E -49.127695799840
  C           2.49674843476766      0.78230182340209     -1.28909870538309
  C           1.23194493334361      0.47669832098880     -2.06011220521572
  N           2.18335624809468      1.07400979258937      0.14360947318403
  H           3.19642204595258     -0.05792263028669     -1.31749145302601
  C           1.30373882281190     -0.88359999780653     -2.81853770157711
  C           3.16235424130907      2.03622218994641     -1.94118993976040
  C           2.38524395112608      3.29353650527787     -1.67566133468255
  C           2.88249063961920      4.31526808431139     -1.00265165189889
  O           0.24896826805118      1.14714516540981     -2.08806777966380
  O           3.21308248068410      1.72034089211376     -3.31635542464738
  H           4.18054801806987      2.12629455539424     -1.52777306805037
  H           1.39347467960923      3.32344563452440     -2.10104324679124
  H           2.31199359588568      5.21262612187047     -0.84475935716731
  H           3.87183034261985      4.29228635692826     -0.57380726566665
  O           2.80428951897459      0.43392904300376      0.94997698581201
  O           1.36308757405292      1.91732799589561      0.36933426266581
  F           0.31938973288212     -1.01502009517423     -3.69760984929676
  F           2.46035104044576     -1.06268945208728     -3.45913259562210
  F           1.19642571169767     -1.88519312291787     -1.92651023302504
  H           3.60395972000224      2.45589281661635     -3.80091891018743
