20
Coordinates from ORCA-job NEB_reactant E -49.147255556630
  C           2.22266085870058      0.18832496982616     -0.76530219676606
  C           1.19745891440657      0.56689598687660     -1.55274661726819
  N           3.03082577166596      1.02127217726014      0.05648868239330
  H           2.50000533700387     -0.85413499211638     -0.71419511776420
  C           0.41368563792074     -0.54609021059620     -2.25865478267668
  C           3.96926426265738      3.21985244080841     -1.95610447595195
  C           2.83036744950484      2.81895005792765     -2.51321084132298
  C           1.49569132010847      2.94557465820625     -1.85334753525797
  O           0.73190397134266      1.73377718194160     -1.95229420991442
  O           5.18134327028137      3.17354587502973     -2.52289378973460
  H           4.00914337184104      3.65202111141741     -0.96547086180959
  H           2.82146537991656      2.38858036329989     -3.50708760877510
  H           0.85985921156105      3.66661972311473     -2.37551155859610
  H           1.60775191853655      3.24363235872002     -0.80519497353868
  O           4.16970090891915      0.65731760305187      0.24573401758567
  O           2.52389171763949      2.00937983993711      0.55302366010018
  F          -0.88696581162761     -0.27582555016039     -2.31783517348250
  F           0.84663341087308     -0.69459016331637     -3.51984015712796
  F           0.54826224177198     -1.73326278116285     -1.66321872096206
  H           5.13715085697628      2.78065934993462     -3.40523773913012
