26
Coordinates from ORCA-job NEB_reactant E -52.012726315390
  C           1.43627172947593     -0.45396716956466     -0.11088384770659
  C           2.17792912011985     -1.12734130433718      0.78273463039616
  C           1.93606596318658      0.54305366288610     -1.08575732841184
  H           0.37371672744578     -0.62811925552512     -0.16063722744267
  C           3.67963836351187     -0.94106009311346      0.95432479767738
  C           1.05914196175063     -3.98211554029905      3.46689253348277
  C           0.11380749594545     -3.41018636762971      2.74150203968832
  C           0.35821084440548     -2.35779342185548      1.69884992411618
  O           1.73451641505392     -2.02507683066187      1.65915035965042
  C           0.86336823647624     -5.03268450359116      4.51291058911326
  H           2.08768895170382     -3.68494253287683      3.31563122647447
  H          -0.92923673039436     -3.66766182116143      2.84768685678856
  H          -0.23234375737842     -1.45941631378082      1.93174805298175
  H           0.03925605118508     -2.73074147275169      0.71394707958729
  Cl          3.05114813055519     -0.20736653716979     -2.28425276935792
  Cl          0.57990466090932      1.23897843273071     -1.99049823916845
  Cl          2.81593779405147      1.88891332738111     -0.29560058039645
  F           3.92628028228675     -0.13854988338220      2.01701588995140
  F           4.26638740664194     -2.12536915773958      1.22728994226968
  H           4.17471537231276     -0.50943846852237      0.07443033248989
  C          -0.57909462561205     -5.46498838347009      4.73925900439669
  H           1.28153481834296     -4.65476318885037      5.45103411634344
  H           1.46449047228964     -5.90286703382904      4.23143568989158
  H          -1.18796751880226     -4.62231362223969      5.05749988986339
  H          -0.62007269094348     -6.22723024524242      5.51373553594051
  H          -1.00379547452010     -5.88065227540389      3.82875150138077
