18
Coordinates from ORCA-job NEB_product E -30.372072978550
  C           2.20935369489075      1.42199210937866      0.01221592208992
  C           2.51691799406046      0.50838091395667     -1.19383279973440
  N           1.22573227564234      0.84391036326516      0.90579059420461
  H           3.14930890968455      1.52563558134678      0.57775302520044
  O           3.21001711908552      1.06220688888161     -2.18466285674560
  C           1.76193150795099      2.82990319802470     -0.44874919128984
  C           1.26513701955865      3.61824209469104      0.72575301437177
  C           0.03608506531613      4.08118380353848      0.84235333688330
  O           2.16249697489321     -0.63797941952284     -1.21252125006243
  O           2.83742548916826      3.49142030364318     -1.10826807822538
  H           0.97188323140502      2.73717175757267     -1.20237233122611
  H           2.00111844963210      3.78876215721178      1.50059537512105
  H          -0.70828547962505      3.91452909014614      0.08182165156844
  H          -0.27810912426763      4.64115175317777      1.70567921507365
  H           1.48113027020881     -0.12200087700316      1.09160631710110
  H           0.31887078929855      0.81955332283015      0.44928760782161
  H           3.31023355256148      2.02990291899932     -2.05393134983722
  H           3.42905226053586      3.85863403986189     -0.43981820231491
