22
Coordinates from ORCA-job NEB E -33.635085661230
  C           0.33137177531935      0.59150400068448     -0.13154531471948
  C          -1.08702240590428      1.00125991058703      0.18047016973066
  O           0.39845464065884      0.07203430473548     -1.45579379963525
  H           0.95500732025622      1.49934377467528     -0.08108122365524
  C          -1.56473935472678      2.14571543047971     -0.43056813199883
  C           0.88097564906476     -0.44774389460012      0.87097051145513
  C          -0.10191992423778     -0.69884308482241      1.95041096944633
  C          -1.54685617076366     -0.71890652571340      1.69008410403129
  O          -2.01539701911928      0.22993676643671      0.78925697667295
  C           1.27096056493398     -1.77146733536158      0.18138527708296
  H           1.79643291687303     -0.04216753243909      1.31880292238213
  H           0.23114659085310     -1.29374850186849      2.78591139594832
  H          -2.11631619538561     -0.55445474175985      2.61436987264689
  H          -1.84837313601729     -1.71298293561893      1.31668525498787
  C           0.52729253933991      1.02636743369530     -2.47853760235080
  H           0.61304655283412      0.45859722430368     -3.40328051218433
  H           1.42736463585909      1.63681917651615     -2.33684881047216
  H          -0.34270317330215      1.68678089189926     -2.53779865268459
  N          -1.90405115713630      3.15583805276067     -0.88594524041639
  H           1.62050182297288     -2.48215462121707      0.92602606142325
  H           2.05987402653661     -1.59312942302510     -0.54290771923847
  H           0.41494950109127     -2.18859837034768     -0.34006650845223
