22
Coordinates from ORCA-job NEB_reactant E -33.690465892320
  C           1.31692499821676     -0.04831789446250      0.15286194867150
  C           1.20827215074364      0.20025063035156      1.47293862174123
  O           1.16058052170269     -1.26202149332648     -0.44308516323932
  H           1.55488903079370      0.78491942167426     -0.49846078567288
  C           1.39197408854626      1.55326023605748      1.86058357604051
  C           3.01522303535233     -3.30371568502320      3.09630463284119
  C           2.43274922925011     -2.49018858222238      2.23204443220449
  C           1.01107573872878     -2.02644698048888      2.33893050905694
  O           0.91187734696900     -0.62039556120377      2.51848798013731
  C           4.42613352331984     -3.77520371019116      3.00034143288520
  H           2.45314364626803     -3.68274688612622      3.94051499319859
  H           2.98618573198938     -2.10113277551889      1.38795408082916
  H           0.53899948804149     -2.44227513033445      3.23253405658060
  H           0.44571172429780     -2.33456710918520      1.45163815984713
  C           1.52147617094877     -1.31659489003751     -1.80332804992181
  H           1.29406110779527     -2.32694169241659     -2.13787506972240
  H           2.58976171544370     -1.11941363685567     -1.93956048337984
  H           0.94615366432037     -0.59723211505895     -2.39453691560031
  N           1.55542699081817      2.64900151301366      2.15602158950256
  H           4.92378147238404     -3.35159145659647      2.13175320580995
  H           4.45475286154334     -4.86222823848773      2.92882744930910
  H           4.97654576252656     -3.49041796356092      3.89640979888110
