21
Coordinates from ORCA-job NEB_reactant E -37.448493247140
  C           2.42322733561371     -0.16322125741452      0.09619474387869
  C           2.03590322326756     -1.00679143230958      1.05878811828652
  Cl          2.72686222532735     -0.51808829643497     -1.56627841510582
  H           2.59448563896994      0.86472258941126      0.36085950053525
  O           1.89817441337913     -0.45320691412902      2.29454570188396
  C           4.39379666040809     -3.01168695458595      0.22595402915605
  C           3.34156231682674     -3.34719188428244     -0.49944681666714
  C           1.91319453748701     -3.10522200896828     -0.11744017215578
  O           1.73690382537249     -2.32288401178421      1.04866060557188
  C           5.81047207019940     -3.26110982641994     -0.17875331349171
  H           4.29578995427345     -2.50659875889406      1.17649967270767
  H           3.46852888618461     -3.84791907032960     -1.44828746237906
  H           1.43885753272566     -4.06154441624884      0.13388479328708
  H           1.36849637600650     -2.66858147547699     -0.96153270497626
  C           1.39563062632375     -1.28082589543208      3.32855268997026
  H           1.34859284961589     -0.64016025510598      4.20645884929847
  H           2.05940203055640     -2.12733669989681      3.51989632466339
  H           0.39890674478698     -1.65657706626453      3.08715884756429
  F           5.89907357133794     -3.99341033457904     -1.33442861335599
  H           6.34509855090596     -3.82573902281391      0.59551196540170
  H           6.33434063043144     -2.31412700804052     -0.36209834407345
