21
Coordinates from ORCA-job NEB_product E -37.480105723410
  C           3.68195192135106     -0.95914675727483      0.62607545695992
  C           2.32028620586771     -0.89687051866442      1.31137226991511
  Cl          3.65726499296199      0.11172038072227     -0.79069341964508
  H           4.45094095985460     -0.58365802126688      1.30627924313817
  O           2.39873082533592     -1.48608153699457      2.50605051274130
  C           3.97481909151822     -2.41455360334080      0.23074962552478
  C           2.84042990920935     -2.98131393263369     -0.57586703639758
  C           2.11212859729962     -4.01209417668429     -0.19429743687448
  O           1.32534440114804     -0.41532016771124      0.85544007697535
  C           5.29589795964593     -2.50706481049107     -0.53983822488887
  H           4.08344235206057     -2.98731161054434      1.15884472210664
  H           2.64566338732889     -2.47740885324299     -1.51216709577630
  H           2.29664496582692     -4.52656432963959      0.73500517169333
  H           1.30707693744850     -4.39104541574697     -0.79928833894511
  C           1.18227835017748     -1.55550739682507      3.24503404178817
  H           1.42713902876190     -2.04721773412247      4.18246661702398
  H           0.43866132506844     -2.12936435012396      2.68950569557192
  H           0.79225130525033     -0.55244847088272      3.42534894277188
  F           5.69954856231295     -3.81518505477722     -0.60454669337295
  H           6.09279859732470     -1.95472076030764     -0.03071774419077
  H           5.18880032424686     -2.15124287944751     -1.56815638611939
