18
Coordinates from ORCA-job NEB E -30.239711740140
  C          -0.43414800177707     -1.55699022854370      1.53108976458481
  C          -1.38706976277198     -1.14848563154690      0.69660291510970
  F           0.11668193600313     -0.73894504629232      2.45283049006976
  H          -0.02509274654777     -2.55109070366629      1.53156470459562
  O          -1.90796488581657     -2.04340104613251     -0.18639178755196
  C           0.85326190844010      0.66602703027738     -1.00964631367477
  C           0.25525030150732      1.01546291806131      0.11851111865463
  C          -1.22078758847608      1.22809836315123      0.23131301196878
  O          -1.97579843995830      0.07267978147030      0.66514956251799
  C           2.31512172651001      0.42018491628221     -1.14984033249688
  H           0.27128873183753      0.54201691644463     -1.91551776719068
  H           0.82643940782192      1.13111749371264      1.02778532209991
  H          -1.63535332347771      1.51557809206167     -0.74385679524623
  H          -1.44592432227000      2.01092251905495      0.96066361853676
  H          -2.66238483634400     -1.62387864544068     -0.62181204089907
  H           2.48923339116437     -0.60130571940218     -1.48672943004832
  H           2.82847419859085      0.57200734263476     -0.20430340467276
  H           2.73877230556424      1.09000164787351     -1.89741263635732
