18
Coordinates from ORCA-job NEB_product E -30.277324616670
  C           3.14491284491736      0.15760904326579     -1.83518895412584
  C           1.64564670440764      0.07923020613203     -1.59485436832680
  F           3.80539099829581     -0.11443052533665     -0.66456688102511
  H           3.44254795495451     -0.61555904357410     -2.55538495138159
  O           0.98774631675736      0.11005618423044     -2.76159026944819
  C           3.52144877017788      1.56001444153985     -2.35561274711912
  C           3.05674065563700      2.59812751528920     -1.37464876580233
  C           2.18444416369331      3.54536933451756     -1.65854490609621
  O           1.10083751794697      0.01526598130628     -0.53326929395170
  C           5.03322398678259      1.65148678471220     -2.56568760722845
  H           3.00451377903829      1.69406859203446     -3.31090158034419
  H           3.48827617356490      2.51645533965718     -0.38689114791305
  H           1.74262400579672      3.63636454035193     -2.63820860441378
  H           1.87656188685343      4.27236422294947     -0.92728932476994
  H           0.02953264377151      0.08555617126178     -2.60645106034442
  H           5.55392045412584      1.45804937861859     -1.63112500725360
  H           5.29652975567175      2.64772998434903     -2.91165878740149
  H           5.36160138760714      0.92514184869498     -3.30572574305418
