23
Coordinates from ORCA-job NEB_product E -53.088795828770
  C           2.09708528035865     -2.09015968708040     -0.80370543566470
  C           0.74353359933882     -2.54889590932623     -0.29325102468205
  C           1.99947922673446     -0.60037285643789     -1.16094603035776
  H           2.86781746756751     -2.19221643799867     -0.03571978506781
  C           0.70554213490303     -2.98862618417924      1.18649944048925
  C           2.47679634368544     -2.89384782938317     -2.07853994948142
  C           3.76625385095328     -2.37617007737101     -2.64807418453049
  C           3.88222992663412     -1.86083725060762     -3.85658944140463
  O          -0.24324293343398     -2.56897430920788     -0.96259161213615
  C           2.61453075424717     -4.38233194232358     -1.76351335441251
  H           1.67154580696224     -2.75621196014204     -2.80663177464679
  H           4.62733113214901     -2.47186744029454     -2.00049206152565
  H           3.03322599003879     -1.75423621916985     -4.51124993300344
  H           4.82840483945291     -1.51968395002683     -4.23837467870052
  F           3.21160081238935     -0.03662810969185     -1.23688156134766
  F           1.39145256358426     -0.37587434789013     -2.32466209282938
  F           1.32448995713767      0.10280516080770     -0.23963213836539
  Cl          1.88143904222442     -4.28521282068419      1.47204076011529
  Cl          1.13510775766226     -1.58714213739459      2.20008863731040
  Cl         -0.91064935947495     -3.55987093222716      1.60833185668537
  H           1.67359783428861     -4.79525698167334     -1.40944710588523
  H           3.37882188074494     -4.55074076778347     -1.00920493489788
  H           2.90260609185199     -4.91104700991403     -2.66855359566085
