23
Coordinates from ORCA-job NEB_reactant E -53.079553770930
  C           1.53313075581699     -0.18009530667505     -0.04022605912348
  C           1.54136565717669     -1.49906543073608      0.20297600572543
  C           2.00166633794092      0.57902442059928     -1.23324264088172
  H           1.12028943706865      0.47234650489706      0.71190515213676
  C           1.02586630262515     -1.99820349223090      1.54800934377076
  C           2.71451299836122     -4.36593008107402     -3.30234665927441
  C           3.04520870455054     -3.82273931772014     -2.14277048130267
  C           2.67177921747988     -2.43223777383957     -1.73383940223546
  O           1.97974703807322     -2.54182905018856     -0.48337592763328
  C           3.09408887623131     -5.74047537876003     -3.73093616425639
  H           2.14202164263977     -3.79360417196109     -4.02136058716192
  H           3.61033031952117     -4.37766977036076     -1.40794229724081
  H           2.02582952945762     -1.97315799176884     -2.48639120198892
  H           3.57438539935958     -1.82612537917093     -1.59527561699623
  F           3.32481591008674      0.47506949406859     -1.47724574822940
  F           1.39169865173463      0.23096268324921     -2.38514721516200
  F           1.76205906452421      1.88511860506889     -1.07240298889531
  Cl          2.44123968591500     -2.11787137484793      2.63053269881355
  Cl         -0.16669721788636     -0.93240292581525      2.29153361362662
  Cl          0.30059368284491     -3.60425500546358      1.37498622979465
  H           3.65910705484986     -6.25168752295624     -2.95650535871588
  H           3.69554010111843     -5.69584144348477     -4.63818861868477
  H           2.20002085050987     -6.31923029082929     -3.95904607608512
