29
Coordinates from ORCA-job NEB_product E -43.059819218370
  C           2.52851003079036     -0.66732697034722     -1.26384990158073
  C           1.72940764383425     -1.50502606838208     -0.30813463674027
  C           2.18763378292107      0.81682528267252     -1.06383472403170
  H           3.59016132337003     -0.81863931555663     -1.05292895285100
  C           2.30287084709790     -2.91394967769622      0.01097497804926
  C           2.21408628244675     -1.25578467247662     -2.68636529796131
  C           1.69046027576403     -0.22663468711139     -3.64154455920082
  C           0.49361382228518     -0.28987990383416     -4.19484571006962
  O           0.68755785076798     -1.18949779592351      0.20082241138561
  C           3.43219934367973     -1.98909976875717     -3.27786472269177
  H           1.42205021649416     -2.00626618194996     -2.57382918633362
  H           2.36111928037712      0.57964673955622     -3.89729264752454
  H          -0.20086871962442     -1.08038442092853     -3.96067626945296
  H           0.15422009476352      0.44654740748817     -4.90348634279520
  C           3.35558633436905      1.73806422828761     -1.39229573596465
  H           1.91173822515767      0.96325484104776     -0.01702186765651
  H           1.31656495883103      1.07994939187360     -1.66423179737922
  H           4.21051794909809      1.51245501046955     -0.75758664680018
  H           3.07068561267186      2.77331639899284     -1.22104478175776
  H           3.66402495803385      1.63827578905740     -2.42907818858300
  F           1.93555264923888     -3.80860991576886     -0.93846749289281
  F           3.65665504150307     -2.91661651977387      0.03301076058252
  H           1.93590340968288     -3.27785934214223      0.98233464019459
  C           4.62085872359989     -1.09894428715170     -3.62073309314468
  H           3.10028098495996     -2.49918367716094     -4.18504779648557
  H           3.75579071247001     -2.75818317627054     -2.57500106320328
  H           4.37388575582296     -0.40373335315521     -4.41880123474225
  H           5.44921672328355     -1.71673680179013     -3.95966980126191
  H           4.95841588630958     -0.53237855326870     -2.75651033910661
