29
Coordinates from ORCA-job NEB_reactant E -43.051942002860
  C           1.91865186861839     -0.17688955438005     -0.24341118406749
  C           1.57169409578425     -1.46296985768005     -0.29977884485344
  C           1.94466977426630      0.88791827778733     -1.30055024201116
  H           2.22269885214083      0.17730684753590      0.73196642934854
  C           1.64633066200519     -2.29604004023713      0.96716208421429
  C           2.64879336108732     -0.98736359246666     -4.33703659564258
  C           2.37444837208146     -1.76783618127279     -3.30496024644800
  C           1.03043941347290     -1.83798791990393     -2.63761180241509
  O           1.11079374043807     -2.26538600411853     -1.29335317272383
  C           3.95541350196085     -0.89064765185754     -5.06133461311981
  H           1.87243049059607     -0.34098387119695     -4.73226753691316
  H           3.11116765105505     -2.43355989857092     -2.88149144203631
  H           0.43001711933124     -2.62313584585791     -3.11422894403348
  H           0.48536516742394     -0.89143591916139     -2.72109324725917
  C           2.89443951168187      2.01671067511580     -0.90882190352888
  H           0.93810405765357      1.30206556720171     -1.42308234028535
  H           2.26075094163034      0.47871440797683     -2.25961306195735
  H           2.58323468095435      2.47628433360558      0.02659215211967
  H           2.90655365520971      2.78314272126633     -1.68009497448178
  H           3.90574106842234      1.63577955748767     -0.78719196509696
  F           0.43788959715105     -2.82023198131960      1.28536447011018
  F           2.48278821313104     -3.35152347133647      0.80550053847853
  H           2.00001498760068     -1.72103473089512      1.83573363912630
  C           5.06390103989722     -1.77667282677461     -4.50979355414549
  H           4.27982081210820      0.15508411522453     -5.03776154949319
  H           3.77888410278277     -1.13920357502591     -6.11284292885647
  H           5.27580731836186     -1.52671687536476     -3.47304428762585
  H           5.97365785932852     -1.63557112350060     -5.08865647626992
  H           4.78199808382461     -2.82501558228079     -4.56629840013274
