20
Coordinates from ORCA-job NEB E -29.402026747200
  C          -0.28235602626008      0.65142789035158     -0.45220200297646
  C           0.32946903336230      0.58185788872408      0.80623355430120
  O           0.40515196002277      0.16765798870548     -1.56573532478721
  H          -0.86578728568255      1.55180288266179     -0.66132910969358
  N          -0.16279357375727      1.37299144032847      1.83497645305709
  C          -1.54658493894808     -0.89949964699568     -0.30467565130037
  C          -1.14582325429612     -1.64792242593728      0.79082575912821
  C           0.25571433223812     -1.91012017029385      0.86941636405355
  O           0.97094916899833     -0.48550588323033      1.17717089114891
  H          -2.53763867628160     -0.46621500245817     -0.29550867489755
  H          -1.21251088040985     -1.22269440479377     -1.28010273845015
  H          -1.67151750821013     -1.51606571152713      1.72880073301025
  H           0.72179527183811     -2.19190542643568     -0.07137324553200
  H           0.61570287993411     -2.49400236689111      1.70891439446689
  C           1.36956405977288      1.06957056216459     -2.05410724034186
  H           1.79511010507697      0.61191939856946     -2.94536436957047
  H           2.16248766022571      1.24553695711191     -1.31778597216805
  H           0.91343228181853      2.03189037104529     -2.32011206811806
  H           0.27732490269807      1.22020437902986      2.72852381365923
  H          -0.39168951214023      2.32907127987048      1.62343443501044
