20
Coordinates from ORCA-job NEB_reactant E -29.431146052450
  C           1.06299658646218      0.03192356084378     -0.08162240164633
  C           1.22013759459021     -0.82163880137666      0.93378941664296
  O           1.00692648394537     -0.37899265156668     -1.39338029387338
  H           0.93534115613762      1.09466185295045      0.09758209489072
  N           1.05365876598398     -0.44047407648209      2.27679692224588
  C          -1.17487042273347     -4.18957115161872     -0.49855130319800
  C          -0.56363012827960     -3.09168721855677     -0.09727251001475
  C           0.43313479315837     -3.04418357502932      1.02204670519504
  O           1.50623595959203     -2.14730501066481      0.75146855342604
  H          -1.89456002490750     -4.17885973042432     -1.29877750725621
  H          -0.98856647125316     -5.14562647177953     -0.03621047857714
  H          -0.74609155820338     -2.13987043658551     -0.57534191016684
  H           0.89959443511683     -4.02141251507710      1.17162000512628
  H          -0.07160345618189     -2.74316363575762      1.95243865068391
  C           1.61964176534965      0.50210878949408     -2.30001053747949
  H           1.41490659895652      0.11239170517229     -3.29554362227615
  H           2.70347262911392      0.54931188867164     -2.14403777441947
  H           1.20522281728236      1.51437338447421     -2.21150636541550
  H           1.66660989148933     -0.95398527024884      2.89696491205075
  H           1.12154258438064      0.55589936356152      2.42184744406169
