20
Coordinates from ORCA-job NEB_product E -29.470962707250
  C           0.72254195694680     -1.13054984465270     -0.62770270598990
  C           1.81286755655589     -0.94066401882407      0.43742048589451
  O           1.22262543751907     -1.07012572225020     -1.93978750122739
  H          -0.03841931946790     -0.33989519677588     -0.48197867373713
  N           1.31656750982557     -0.75307333134257      1.68640927856238
  C           0.07328415703555     -2.51824140377372     -0.45939716090117
  C          -0.91112677807326     -2.56795605457197      0.66184264065531
  C          -0.83866693340508     -3.39744485610222      1.68787797870879
  O           2.99721649368906     -0.92593448643228      0.20060427523962
  H          -0.43809425501361     -2.73339684572349     -1.40132004282504
  H           0.85776766887527     -3.26378662416860     -0.32480321795995
  H          -1.73604256585088     -1.86916622231074      0.58310985564521
  H          -0.03332943668154     -4.10684482552490      1.78372651478225
  H          -1.58272108284218     -3.41189430795191      2.46636363058505
  C           1.71853321305324      0.19138339877008     -2.32219247982860
  H           1.98925295847949      0.09983728816256     -3.37192497405534
  H           2.60057007294411      0.47181562065790     -1.74157144536834
  H           0.94786589303794      0.96571541562769     -2.20837464441161
  H           1.97442312933610     -0.72840115638257      2.44941951339133
  H           0.35528432403638     -0.96057682643041      1.89887867284003
