18
Coordinates from ORCA-job NEB E -43.261608929090
  C           0.69385048878419      0.05796365944258      0.05747059665661
  C           0.36666566457881     -0.51138825411960      1.32046311642797
  C           0.82755074499121      1.41769883718307     -0.16261848215105
  H          -0.13918333515514      2.01893356171368     -0.07881848815063
  C           0.10683277853431      0.53852605895529      2.44043530203227
  C           0.75083073730066     -0.86790067352834     -1.13615930313361
  C          -0.48943955064543     -0.84135537052617     -1.98900565347022
  C          -1.71541685885159     -0.66979915546250     -1.53340335915152
  O           0.28953637192634     -1.69449506762373      1.57790802937229
  F           1.83873018337953     -0.55667062779261     -1.92273174996774
  H           0.92453908824089     -1.88309938100702     -0.74560620671516
  H          -0.28954350598159     -0.99081950215815     -3.04019103251249
  H          -1.92983717129684     -0.53334943130167     -0.48549119692338
  H          -2.56322007091226     -0.68559775558125     -2.19463099668734
  N           1.29318090380943      2.50509595621076     -0.42888044046322
  F          -0.81801624121601      1.45042374260653      2.02878338917964
  F          -0.35123277691148     -0.00174186925251      3.55631896491643
  F           1.20417254942497      1.24757527224162      2.73615751074112
