18
Coordinates from ORCA-job NEB_reactant E -43.368987474280
  C           1.96389496794512     -0.46181264832174     -0.09858919170604
  C           1.35655426105614     -1.49844250166515      0.49955822752915
  C           1.91388702914574     -0.13204103187662     -1.46318414537131
  H           2.55880076161797      0.21334277436108      0.50074913723659
  C           1.53478061417247     -1.72352562290556      1.99466745689907
  C           2.56891499768944     -3.55742276026777     -1.66563301958833
  C           1.51149373655904     -2.96007413399554     -2.18266042495936
  C           0.31818414847838     -2.53928250616417     -1.37962762339081
  O           0.56819876504907     -2.46580709132072      0.01551463281465
  F           3.60646262884350     -3.91953246701135     -2.42628077804780
  H           2.72029383001433     -3.81518144797421     -0.62635061193681
  H           1.46623226008884     -2.75045737966458     -3.23987766546748
  H          -0.47744103578470     -3.28703290117812     -1.46845245807090
  H          -0.06350352883997     -1.58051406112083     -1.74798480834089
  N           1.90858585972931      0.19342745149741     -2.56329190929247
  F           0.36293711449423     -1.81215360952649      2.62828529641495
  F           2.19664361974742     -2.86538508196963      2.22880901530221
  F           2.22787996999367     -0.74660498089600      2.58704886997560
