21
Coordinates from ORCA-job NEB E -36.938939419270
  C           0.18194375617983      0.86800651528544     -0.22080595516038
  C           0.25800329371763      1.15584795366916      1.14103567215400
  O           1.32574782245714      0.53280043104792     -0.91026466491512
  H          -0.54541396157450      1.43656053703346     -0.80144640978453
  Br         -1.36164711875912      2.07260961307043      1.81379212806335
  C          -0.55062754256740     -1.06791730521945     -0.08189624093731
  C          -0.61440239475256     -1.35293430289338      1.27433317858258
  C           0.55562805136932     -1.20812082258524      2.03849130815441
  O           0.90609805198547      0.50489766036452      1.98679440709209
  C          -1.79553657706844     -1.09547949454309     -0.92538569445112
  H           0.33433115202872     -1.38970135227002     -0.61768622870228
  H          -1.57161207885935     -1.25699682501892      1.77171833467220
  H           1.48997588022065     -1.52228217184443      1.59003536719711
  H           0.49814935353624     -1.35759419026700      3.10734369497345
  C           1.77693168602902      1.53880404542047     -1.79371724987393
  H           2.62293557195210      1.11312060019520     -2.32909471526841
  H           2.09961609460322      2.43008338557996     -1.24679738814736
  H           0.99265928018603      1.82001972983375     -2.50522968528832
  F          -2.86452023093255     -0.53823975921668     -0.27724031574193
  H          -2.07006004506831     -2.13559666424103     -1.14898746324772
  H          -1.66820004468313     -0.54788758340107     -1.86499207937077
