21
Coordinates from ORCA-job NEB_reactant E -36.975369444240
  C           1.18104612041896     -0.10072713409295     -0.20367596339226
  C           1.06357575218665     -0.84929560587176      0.89144846255115
  O           1.67248264343718     -0.60138214590482     -1.36428459201569
  H           0.89611386712730      0.94343054058967     -0.18224096079459
  Br          0.30668823776924     -0.00010219598357      2.45449546658945
  C          -0.66983885929918     -4.39660868009159     -0.42343198976742
  C          -0.49291967961838     -3.25868446454920      0.22524267620533
  C           0.46817474348787     -3.07816235882910      1.35660539504301
  O           1.47587739099772     -2.11180550956527      1.05178477585242
  C          -1.61818793229163     -4.58200833973677     -1.56322447128638
  H          -0.12864197597356     -5.29192538465525     -0.15113875775132
  H          -1.04205098215409     -2.37425671031194     -0.06932763942038
  H           1.01717211898204     -3.99774069941689      1.56535860841931
  H          -0.07032134932676     -2.76097561823972      2.26287372695038
  C           1.72747403237010      0.31147635147744     -2.43654968294359
  H           2.14590387476181     -0.23685003674375     -3.27805275705607
  H           2.37201234790597      1.16439828059018     -2.20086707669105
  H           0.72921837422783      0.67549149759282     -2.70017852849420
  F          -2.26655534161022     -3.42020169863357     -1.89314011217736
  H          -2.39350546721629     -5.31752377404726     -1.31267969956985
  H          -1.08391791618254     -4.91354631357672     -2.46261688025090
