21
Coordinates from ORCA-job NEB_product E -36.993301732140
  C           0.46767015297240     -1.51335699325079     -0.67043090018844
  C           1.21953051680549     -0.98467295254761      0.53051635674359
  O           1.32398715792571     -1.61491395120992     -1.77455828651070
  H          -0.39562711178447     -0.86452412325196     -0.88689040677454
  Br          0.07928716504511      0.11065191019423      1.69989785223456
  C          -0.02529236462532     -2.94298823270670     -0.33180721918768
  C          -0.83305293874116     -2.97036048863996      0.93335407347931
  C          -0.48168752310630     -3.63938331024161      2.01456599647430
  O           2.34789310088978     -1.15210454482872      0.82317963935403
  C          -0.85239280931990     -3.46519262126096     -1.51069447136177
  H           0.86034684537478     -3.57872856353182     -0.23945566444939
  H          -1.75759490719087     -2.41022179311639      0.90010719208709
  H           0.43615172839295     -4.20305018641616      2.06273161437315
  H          -1.09367337276686     -3.64281237148583      2.89934137330438
  C           1.65160343046113     -0.37726033399712     -2.36788013126904
  H           2.25069424748161     -0.61489028815996     -3.24382993681594
  H           2.23580291606489      0.25437154364280     -1.69078021509091
  H           0.74815897436235      0.16242475429690     -2.67393491779175
  F          -1.96018930947686     -2.68072588866596     -1.70677265183963
  H          -1.21030945577049     -4.47901987124918     -1.30873646860962
  H          -0.26950644299397     -3.43574169357328     -2.43522282816101
