18
Coordinates from ORCA-job P E -24.657596686660
  C          -1.33924484095289      0.58764053565153     -2.17641209630536
  C          -0.54453263972499     -1.74683596373993     -0.55135037184419
  C          -1.29926954315637     -1.85103613610369     -1.83782774234138
  C          -1.65991768354622     -0.80849788192678     -2.56874285985554
  C          -0.97840652142095      0.70386985483612     -0.70744455452220
  C           0.07110390021376     -0.35757438395006     -0.36105547930920
  H          -1.54006649973984     -2.85210347801915     -2.16686957797358
  H          -2.17627289010290     -0.94565894722585     -3.50791079665106
  I          -3.03173594332854      1.90622133268044     -2.61835011384001
  H          -1.21935843550768     -1.96352994320352      0.28308820172097
  H          -0.53528098917880      0.97517112180551     -2.80403530028091
  H           0.24306620008241     -2.50472994100513     -0.53307891367638
  H          -1.86074140189010      0.53466195646240     -0.08742856896261
  H           0.34758885501062     -0.23709899837725      0.70498835941918
  H          -0.59379867764085      1.70268674857915     -0.48902954319155
  N           1.21386535413698     -0.20270069057218     -1.24936128298202
  H           1.64737013455972      0.70422273946714     -1.11326462058684
  H           1.91236162218665     -0.91256792535874     -1.06024473881731
