18
Coordinates from ORCA-job TS E -24.554989135940
  C          -0.79892570430693      0.69547208753996     -1.31499477452994
  C           0.47201492504586     -1.59042174069480     -0.21020111373725
  C          -0.84799580987283     -1.57179463255244     -0.51011572522057
  C          -1.48366526402804     -0.47085558057602     -1.11979982482896
  C          -0.25328537562237      1.27052582497385      0.68405212455148
  C           0.57960740003643      0.34820425759948      1.26101288671256
  H          -1.48571044691536     -2.36267062896951     -0.13867206056289
  H          -2.56158002124918     -0.47855012921498     -1.18042280319724
  I          -1.81611970663617      2.37605178697710     -2.11851807666953
  H           0.89232078324004     -2.40814886553241      0.35269668423864
  H           0.23872408120606      0.71287432109517     -1.59652707880975
  H           1.18072459549666     -0.97524079576391     -0.73370557053151
  H          -1.27533153968513      1.32127746035629      1.01263384976669
  H           0.20080108354637     -0.39412884187955      1.94437336680311
  H           0.17512620898038      2.19408683453003      0.32913000684695
  N           1.94831597006757      0.51488986586587      1.28996496580525
  H           2.32959342660428      1.12344149293768      0.58124444202395
  H           2.50538539409237     -0.30501271669181      1.46784870133900
