75
Coordinates from ORCA-job A2R E -104.212343965870
  Ru         -0.62587812893478      1.98146607739205      0.19994975779338
  H          -0.59968058368406      3.52428018026853      0.26687475671225
  N           0.80408078858454      2.02080056937276      1.72220860387368
  C           0.45631660751224      2.41534884950438      2.96180540917593
  C           2.08516082223271      1.66592658595485      1.50447679405533
  C           1.36580684571209      2.45448915876874      4.00857621907399
  C           3.03857252585219      1.69250763726061      2.51289877009693
  C           2.68201483840800      2.08558536869913      3.79027157887583
  H           1.03837916304497      2.77747874799813      4.98540678235462
  H           4.05018662874756      1.39194134912088      2.28904247360019
  H           3.40595473506610      2.10684423300763      4.58981310228313
  P          -2.06516687342819      2.03651729440873      1.95763983928900
  C          -3.58649082132704      3.17531468540919      1.98762800387356
  C          -2.50450474776694      0.40866758255087      2.85915319788334
  P           1.25665848381387      2.02716439606170     -0.99971056382778
  O           1.63745874048206      1.20471715644859     -2.34858907628138
  O           1.89974315944483      3.49474615432862     -1.28205403974514
  C          -0.95418347474046      2.86383950741938      3.18623104973178
  H          -1.01068345406650      3.92936305178770      2.93053800484573
  H          -1.25741391503449      2.73352898998457      4.22845065895811
  C           2.46255671034623      1.21788122554214      0.13114568874385
  H           3.50704446929047      1.44094309190509     -0.10098143594434
  H           2.30729831489246      0.13651522352426      0.05001173680944
  C          -1.86203447469678      1.95333459559281     -1.15792094658762
  O          -2.62574567182589      1.91248366064457     -2.03122453046625
  H          -0.50066861002670      0.42462753030437      0.14525295337428
  C          -3.96691052895822      3.72246527945007      3.36422114096402
  C          -3.27254125402610      4.36528831696898      1.07883484510481
  C          -4.75599694062230      2.41596090455458      1.35943484352440
  H          -3.18118344865561      4.35726742421844      3.76689266265798
  H          -4.86308273189317      4.33403454327744      3.25885265013080
  H          -4.18422323529118      2.94076337727868      4.08239805757203
  H          -3.06302511196102      4.02535391738743      0.06636187903509
  H          -4.12680808917202      5.04140299746118      1.05226682306066
  H          -2.40867193380861      4.92482731677278      1.43077258587856
  H          -4.41678219431652      1.90274200205914      0.45805628075646
  H          -5.18446153057206      1.69080590545470      2.04647084305944
  H          -5.54467660867495      3.11288701713859      1.07743578412322
  C          -1.16127072826183     -0.22018991709758      3.24590997818446
  C          -3.35587629064238      0.51441680889797      4.12237024539555
  C          -3.19180337338847     -0.50315853666409      1.84013600088543
  H          -0.69203969818566      0.31034276394293      4.07290652806230
  H          -1.31197244768876     -1.25339282356193      3.55856869342447
  H          -0.47825339152200     -0.22125351539444      2.39663619812764
  H          -4.37474755811062      0.82018699136976      3.90230548937679
  H          -3.40413462031385     -0.46798677026091      4.59328702562209
  H          -2.92125356908161      1.20355361266510      4.84381698975064
  H          -4.23582393859456     -0.23911860490464      1.70086724316493
  H          -2.68637311072267     -0.41629397536714      0.87703043417172
  H          -3.15143488287360     -1.54050282816631      2.17285557676732
  C           3.18288926847053      3.67859901574618     -1.86325000357683
  H           3.11107511975278      4.51858785976213     -2.55564190898510
  H           3.91296755891990      3.91751680974465     -1.08668796562593
  H           3.50564824584749      2.78704941122594     -2.40634166912293
  C           0.78172956196544      1.40321604571437     -3.46434768889831
  H          -0.22811656275499      1.05186283106494     -3.23598799661484
  H           0.73442031857364      2.46013307394531     -3.74191891799600
  H           1.19721059942731      0.82138284646317     -4.28675661808907
  C           0.91536815994787     -2.25073738789110      0.09245504329195
  O           1.91350231012266     -1.86685622849106      0.66801246217573
  C           0.76999741837463     -2.11983094800670     -1.37722822084956
  C          -0.47008084932887     -2.07466348698601     -2.00993529007340
  C          -0.54108524626551     -1.97307924539824     -3.38622514615702
  C           0.61727603834250     -1.93450824040762     -4.14614561181125
  C           1.85455902912692     -1.96775242850819     -3.52403266878572
  C           1.92960689092867     -2.04610121072550     -2.14761026358098
  C          -0.21998299874296     -2.91415060244948      0.82366086242600
  H          -1.37978509741520     -2.08959259286798     -1.43077292112698
  H          -1.50510860931287     -1.92543306007664     -3.87105897155217
  H           0.55320928245081     -1.87159434677336     -5.22314062504075
  H           2.75964627774799     -1.92870440853603     -4.11281999421827
  H           2.88649610023334     -2.07089119458938     -1.64652900712629
  H           0.09237680176218     -3.16179231548977      1.83541660769366
  H          -0.54630331874954     -3.80922164297457      0.29995123134533
  H          -1.05285115998555     -2.21615366423601      0.87475169494610
