75
Coordinates from ORCA-job A2S E -104.213216645180
  Ru         -0.41725708284581      2.21878429356587      0.04091557203998
  H          -0.31927708887291      3.74002991692237      0.27937308719145
  N           0.75550291874697      2.00057515033027      1.73175903198039
  C           0.24801367820893      2.26799616762070      2.95096215320558
  C           2.03706062966862      1.59103933741354      1.65238722020080
  C           0.98658718175128      2.10031561130523      4.11274044770650
  C           2.82636716217384      1.42162066315794      2.78211958516470
  C           2.29876865155452      1.66504033058870      4.03760288667147
  H           0.53338397707711      2.32109656255469      5.06750562894898
  H           3.84830809480214      1.09277487083771      2.66779254441753
  H           2.89269189174829      1.53036817508543      4.92825760569691
  P          -2.10985571897117      2.21511559679730      1.55948126976413
  C          -3.53164465993250      3.47318364396050      1.48614931427643
  C          -2.80599844331709      0.55409672898970      2.20156015672204
  P           1.60453835476332      2.31080412724551     -0.91638430161040
  O           2.07738221750031      1.70500071257960     -2.34059601156399
  O           2.36328678148968      3.72068866474787     -0.98357566326088
  C          -1.14583636363323      2.81008699850727      3.02453784198904
  H          -1.08683311289628      3.89723300733701      2.88678057838077
  H          -1.61230651938151      2.60029862509064      3.99070174747024
  C           2.60104761292534      1.31224856191421      0.30094659055947
  H           3.67605038003109      1.51119315951382      0.25809084352107
  H           2.43389034568613      0.26324537789040      0.02960122371969
  C          -1.43175489315887      2.42760544999930     -1.48032748512730
  O          -2.05391998413885      2.54698698696886     -2.45080707220397
  H          -0.38167709990755      0.66415940067509     -0.14382258657117
  C          -4.09101799949483      3.90818241184185      2.84156316627519
  C          -2.99633026466855      4.71967373830896      0.77893044733412
  C          -4.63148292554928      2.88226242027783      0.60266040596495
  H          -3.33531399927272      4.41909030741576      3.43366537971944
  H          -4.90667011529333      4.61095845594277      2.67100782695678
  H          -4.48489046008125      3.08099675888468      3.41983244250041
  H          -2.65013188500215      4.47090886293608     -0.22219060362040
  H          -3.78811753302017      5.46440670207743      0.70056720208842
  H          -2.16511423273670      5.16531983474023      1.32096313582351
  H          -4.18505750348905      2.44016622514455     -0.28966945982790
  H          -5.21024140988106      2.12565935850300      1.12610649173587
  H          -5.31816458971641      3.66691391421931      0.28642305397408
  C          -1.59387408831153     -0.21189917367183      2.73849901608031
  C          -3.85643489746082      0.60752727412486      3.30814823809736
  C          -3.35229298250299     -0.20842584312319      0.99293162621042
  H          -1.23259673798776      0.20160637286264      3.67836082932695
  H          -1.86126197631477     -1.25276352636818      2.91663699330604
  H          -0.78266660064600     -0.19731038910738      2.01112466946291
  H          -4.79994403032778      1.01384202308122      2.95556135863666
  H          -4.04720094254847     -0.40847306008314      3.65569655602040
  H          -3.51084768664845      1.18737037569669      4.16171492503000
  H          -4.32673991448633      0.16031025772601      0.68702833538326
  H          -2.66380852339289     -0.09845072558244      0.15431585058694
  H          -3.45103876413118     -1.26789938377307      1.22928476412157
  C           3.67485009655453      3.91453232118182     -1.50321111319199
  H           3.72850050997178      4.95461979239597     -1.82477053653419
  H           4.42556110958428      3.73802017372369     -0.72934006508291
  H           3.86311407796821      3.25966751883343     -2.35304096315652
  C           1.46018355417002      0.54410192245472     -2.87186672032001
  H           0.38070810660939      0.57182361740795     -2.69539674936457
  H           1.66334289598337      0.54321290103084     -3.94315661525426
  H           1.87935956574293     -0.35263389899670     -2.41119616406561
  C           0.98784935055384     -2.24614636176202     -0.13272498329349
  O           2.02401446199833     -1.74004956709308     -0.51499845135305
  C           0.76333184335822     -2.53006384549441      1.30725158966845
  C          -0.26748231880545     -3.34576136847104      1.77093218208756
  C          -0.41718947911645     -3.57368552282472      3.12654478107872
  C           0.44125773000811     -2.97869721613307      4.03754752658238
  C           1.46614714611593     -2.16285672111638      3.58750202503968
  C           1.63239902288412     -1.95226366842057      2.23339006068592
  C          -0.11971696904317     -2.59926007924760     -1.08568083602016
  H          -0.95070319977408     -3.81367932809449      1.07969264504070
  H          -1.21183492105968     -4.21659069298090      3.47709678124160
  H           0.31185572454741     -3.15381276289045      5.09545670215247
  H           2.13822807938214     -1.69552905974821      4.29205980315967
  H           2.43743391264411     -1.33191159912586      1.87009138463235
  H           0.15311979289963     -2.29299370080227     -2.09240104296324
  H          -1.03019780219332     -2.08305316783007     -0.78847070756847
  H          -0.30251113909149     -3.67165099967077     -1.07422539367778
