75
Coordinates from ORCA-job TSA2R_3R E -104.172523329800
  Ru         -0.07377573697541      0.57694199716002     -0.45366501223723
  H          -0.14567596364864      2.09689919179263     -0.54872706463649
  N           1.40660899250706      0.88952918190608      1.05750018829350
  C           1.06833423501852      1.40879354482610      2.24321487857125
  C           2.70384677017022      0.57145422356745      0.81537451488675
  C           1.98703033716916      1.58789785391737      3.26368272481208
  C           3.67245376856138      0.72547554895269      1.82389243639358
  C           3.31428171576587      1.22571720493714      3.04937066077604
  H           1.67241748786981      2.00612303548157      4.20693684767958
  H           4.69063748777598      0.44074079116296      1.61010673753299
  H           4.04621962568825      1.34894688070436      3.83356484330705
  P          -1.46745727674167      0.82799706871580      1.35649693966676
  C          -3.00515409899166      1.93504846856996      1.25528431649371
  C          -1.83691065362570     -0.67668160048519      2.46060562481822
  P           1.85788030295235      0.72220240405694     -1.65183525764934
  O           2.41027031707435      0.07825312934602     -3.03108063257298
  O           2.26048223248677      2.29884768574482     -1.81516400218278
  C          -0.35496098987273      1.84206473614285      2.42853736658713
  H          -0.44106178874809      2.86611077363546      2.04637168536114
  H          -0.64353664787369      1.83463047180090      3.48236446975319
  C           3.01514674505255      0.00577702448868     -0.47215915882614
  H           4.06346236037122     -0.04044974185712     -0.75267079909170
  H           2.58080982652435     -1.26625336977803     -0.27579739401205
  C          -1.33940565987202      0.46096603058140     -1.77837206386147
  O          -2.13486479298295      0.49781323809545     -2.61879869866769
  H           0.17568857995036     -1.21677913287472     -0.43057232836727
  C          -3.35908186464305      2.65042984060978      2.56055908287439
  C          -2.72310070275334      3.00041012325390      0.19351512825126
  C          -4.18393038854471      1.09225159129209      0.76802600921125
  H          -2.58760776160754      3.36246143880725      2.84269911606501
  H          -4.28331929569608      3.20819641534164      2.41162282225145
  H          -3.51716462620784      1.96433076896498      3.38456035422879
  H          -2.55858184885320      2.54033313931371     -0.77889219544755
  H          -3.57488118465488      3.67534710298922      0.11923271460441
  H          -1.84345204052612      3.59182301397393      0.43919684605372
  H          -3.87369879611824      0.46761767791675     -0.06987125642211
  H          -4.58224396735401      0.46173230680935      1.55842448049862
  H          -4.98757283738953      1.74271787074874      0.42539082106136
  C          -0.45990691004918     -1.23753348724099      2.83616309940740
  C          -2.61381328648453     -0.42431982134504      3.75008945549316
  C          -2.58287343078979     -1.69649751994175      1.59629450039520
  H           0.04008576986817     -0.60341669160731      3.56680461062787
  H          -0.56928801842829     -2.22711301599368      3.27985893821525
  H           0.19092851651451     -1.33339115893079      1.96552989436963
  H          -3.64711276811271     -0.15129204311639      3.55400082274868
  H          -2.62387767458621     -1.34360087358173      4.33609832380500
  H          -2.14801024715687      0.34814548344940      4.35873244159265
  H          -3.64770137839301     -1.48604499713790      1.55782526135987
  H          -2.19419896829203     -1.67810903919404      0.57638486939175
  H          -2.45816035184104     -2.70125458523772      1.99711036053528
  C           3.58468267669755      2.68274720400294     -2.15568221957584
  H           3.51709373711446      3.61150083651200     -2.72345575135246
  H           4.17084302983242      2.85572304921895     -1.24981200111218
  H           4.07951687527332      1.91904648710238     -2.76160728386280
  C           1.75208151505060      0.43783079954839     -4.23572707505017
  H           0.67293344512126      0.28725993861655     -4.15024236831077
  H           1.94282785899571      1.48466194282589     -4.48629408262490
  H           2.15027507056930     -0.21097326301291     -5.01495922251468
  C           0.78406023600112     -2.29987099389053     -0.61820708590479
  O           1.92128560140852     -2.30466115691029      0.07186069331241
  C           0.93286629786165     -2.44056350457539     -2.12355660742672
  C          -0.14201606078757     -2.25281283838078     -2.98216243054193
  C          -0.00921972079182     -2.50295049731963     -4.33536931917846
  C           1.19968515567834     -2.94863384365729     -4.84473548823972
  C           2.27249228215123     -3.14483997766966     -3.99292500197125
  C           2.13778159025303     -2.89828958705569     -2.63902383130251
  C          -0.14706975711066     -3.42772501674450     -0.14777541103439
  H          -1.09275060481871     -1.91528236048806     -2.58988254734094
  H          -0.85225455020732     -2.35117881900926     -4.99418954481301
  H           1.30096066413130     -3.14554434068940     -5.90262253806726
  H           3.21693457606934     -3.49665706577062     -4.38297116977508
  H           2.96244154192574     -3.06327972562665     -1.96143382819257
  H          -0.25822614481949     -3.40149072579148      0.93172253543152
  H           0.32887145143236     -4.36952436586500     -0.41723663665081
  H          -1.12029988053783     -3.37578235610491     -0.62753010790085
