14
Coordinates from ORCA-job NEB_product E -29.730548880400
  C           1.77815027629148      1.63794776033052      1.57312075647414
  C           0.33336134554662      1.86410429586981      1.23418750707335
  I           2.20335926179015     -0.32901812522331      0.75074923323853
  H           2.43410082017311      2.32745233422604      1.04276115019210
  Cl          0.12904481512933      2.56298904688885     -0.36563796716916
  C           2.02410384799366      1.64795802147967      3.06744903646882
  C           3.41261460725676      1.27329808626186      3.44646054599195
  C           3.69261954305997      0.36210051047306      4.36045472605407
  O          -0.59871347809911      1.59232834358332      1.91264218785396
  Br          1.67993058804480      3.52148075163946      3.65428178822191
  H           1.27950556164373      1.04259798963798      3.58927371195879
  H           4.19552087401429      1.81332258570732      2.93083942848648
  H           2.91903255336312     -0.17213337848190      4.88732568632822
  H           4.70766938379210      0.11107177760731      4.61159220882682
