21
Coordinates from ORCA-job NEB_reactant E -39.538894040090
  C           1.31171194418326     -0.47616773275976      0.11368835033296
  C           1.90721567587853     -1.41291808811904      0.90413099179433
  C           1.95421755753649      0.10046924141471     -1.04282569642206
  H           0.33479396210686     -0.10031280244784      0.36146730069166
  N           3.15550976355778     -1.90163264215940      0.68223443699690
  C          -0.78351183513874     -2.26214833516780      4.55432993917027
  C          -0.46527109297969     -2.69588414711638      3.33503678348546
  C          -0.06057685901102     -1.78577638108277      2.22554794557347
  O           1.32673997210404     -2.01061105883270      1.95296172550911
  N          -1.24800185028915     -3.05247683271278      5.57602350093820
  H          -0.77494637046308     -1.20386641161781      4.78002897333401
  H          -0.46730105746398     -3.75078799706811      3.10704835275885
  H          -0.21087343901868     -0.73870341441748      2.51454564857606
  H          -0.63669559450757     -1.99693452804176      1.31495970932105
  Br          0.80325669159035      1.33627374945925     -1.98218037468633
  Br          3.66050471148972      1.18380931004268     -0.55411911980447
  Br          2.60281643489841     -1.23682944605010     -2.36557814588288
  H           3.49951260473471     -2.53199007440034      1.38810176228674
  H           3.84449626963967     -1.32067917383773      0.23234160922499
  H          -1.10260472383295     -4.04391886843842      5.46619273659174
  H          -1.11729276501494     -2.71131436664641      6.51336357020993
