26
Coordinates from ORCA-job NEB E -44.059408032290
  C           0.61217839906698     -0.21617826354332     -0.13357924290117
  C          -0.53296676319101     -0.98298525112240     -0.69924729931348
  C           0.52335281539567     -0.08150534013651      1.39945747947161
  H           1.53913434426310     -0.74080365415493     -0.37846403159165
  C          -0.36455545602622     -2.35856515497456     -1.23704335244573
  C           0.55486336351207      1.15066945823165     -0.86309327930514
  C          -0.87061052771053      1.38181740445798     -1.20324724391270
  C          -2.01164580791433      0.71233156657627     -0.53284732392266
  O          -1.81796653952053     -0.66399675610999     -0.38331612030100
  C           1.18969594102685      2.37171026696345     -0.17119640172443
  H           1.13610210078398      1.02048731059415     -1.78381908364866
  H          -1.10647369544464      2.38615911577587     -1.53532678283726
  H          -2.91852781275737      0.81382745052406     -1.13963989272117
  H          -2.22736306112596      1.19259493460833      0.43615608907035
  C           0.51434895411756     -1.43757454973327      2.09251442931645
  H          -0.37218271066110      0.47463632326894      1.67568489864633
  H           1.38698622627826      0.48895275031518      1.74352335334919
  H          -0.38472955665175     -1.99553318404873      1.84212147210396
  H           0.54488187620978     -1.30243417084912      3.17114054010415
  H           1.37569791026987     -2.02979654010631      1.79340801570026
  F           0.13313251007915     -2.32209981201914     -2.51639885920966
  F           0.54586063830344     -3.10522677740169     -0.55111608862421
  H          -1.31484935555047     -2.91103782049160     -1.26991749822482
  F           0.43790281682073      2.79345961916843      0.89879684453315
  H           1.23799074672947      3.21771062387650     -0.86417107872715
  H           2.18974264369700      2.14338045033074      0.20962045711541
