26
Coordinates from ORCA-job NEB_reactant E -44.108711963100
  C           1.95283651401327      0.25810505444280     -0.20531101553716
  C           1.50928495069140      0.37582072569487     -1.45650891853938
  C           2.11980614713054      1.26999648933217      0.88956550072839
  H           2.23775796201394     -0.74205524827493      0.09126031113545
  C           1.45303583717830     -0.86210114961126     -2.33376440902303
  C           2.52574702919488      4.49648826122681     -0.89446944387413
  C           2.26897904036441      3.43137138167236     -1.63549326238402
  C           0.94391669936090      2.72725183701984     -1.67439418862119
  O           1.03030225159237      1.41738626552761     -2.18701848212418
  C           3.83425906317895      5.21947704659902     -0.87518393412576
  H           1.77884369612064      4.92386582057373     -0.23888260912862
  H           3.02567223116011      3.02082837012588     -2.28947497503579
  H           0.29116853859538      3.23879543715596     -2.39307674718455
  H           0.45037392845141      2.73831739237452     -0.69580721555818
  C           3.23226612903964      0.84799652566576      1.84636846277033
  H           1.18299928891058      1.35024035558499      1.45188475558321
  H           2.35829067302252      2.25294814817611      0.48650410463708
  H           3.00798237450034     -0.11524060763274      2.29884695906107
  H           3.34463347945426      1.58216382383439      2.64057788394448
  H           4.17731533483046      0.76872492074876      1.31451902318461
  F           0.17619387661022     -1.14705477715086     -2.69273568898244
  F           2.13517394062700     -0.67543615661164     -3.48834995622932
  H           1.86700022465366     -1.75373624190983     -1.84014202626371
  F           4.76381058832728      4.62808882227899     -1.68892946100718
  H           4.26019122991167      5.23123123489246      0.13658605466830
  H           3.71455897106587      6.25262626826423     -1.22597072209428
