26
Coordinates from ORCA-job NEB_product E -44.119231019310
  C           2.48561381219290      1.15335788104857     -0.59814712872041
  C           1.53407873858326      0.28607110273273     -1.37755760740623
  C           2.21802823608234      0.99284371708825      0.90402558930868
  H           3.50342799245042      0.80875522327465     -0.81093729709774
  C           1.89420716400065      0.05969854025575     -2.87221459295322
  C           2.34265648800189      2.60601452897585     -1.17060908015383
  C           1.59346062136373      3.52056118911017     -0.24434465234572
  C           0.34501928819604      3.89632905906204     -0.44653433298230
  O           0.53205446025895     -0.21828800730691     -0.95283052095434
  C           3.70317233190004      3.20767068935013     -1.53379026733445
  H           1.78534840690215      2.56225990507357     -2.11170091439342
  H           2.15203768840418      3.88443289301253      0.60601595685293
  H          -0.22576735977661      3.54368304329422     -1.29041298443579
  H          -0.16263926913339      4.56479271640145      0.22720062909850
  C           3.41520490381680      1.36881559716783      1.76631847524666
  H           1.96835570805850     -0.05543554816601      1.08446938160944
  H           1.34513753590095      1.58300344389560      1.18448094014468
  H           4.27359782054619      0.74776947850395      1.51927094535839
  H           3.17589049209122      1.21792167621120      2.81601611786924
  H           3.70005454324350      2.40622673978741      1.62588352377816
  F           1.13694233549853      0.86362166820595     -3.65847023164379
  F           3.18361063837366      0.36304300638690     -3.15050695068824
  H           1.70629329185637     -0.98230799341443     -3.17199384291158
  F           4.50859551200827      3.35292945903414     -0.43310532999220
  H           3.57096914927516      4.20853030144090     -1.95836366605599
  H           4.24504946990432      2.57109968957356     -2.24016215919740
