16
Coordinates from ORCA-job NEB E -30.654480229660
  C           0.25726789722202     -1.28059622925400     -0.48779887502060
  C          -0.98595660748839     -0.89160938611917     -0.98324028170130
  C           0.34237731230680     -1.76195914618368      0.83943035299628
  H           0.99742482414462     -1.69623877835523     -1.16099643547636
  I          -1.09773967464945     -0.73943162544604     -3.15767494695537
  C           1.02422806412477      0.62670419633127     -0.06423875087868
  C          -0.02516523559524      1.08845326234979      0.73708520612569
  C          -1.27212441625419      1.34931876167022      0.18769917790472
  O          -1.86508086194755     -0.32027684941082     -0.32764487411362
  O           2.24813787697189      0.36703085583646      0.41255843235152
  H           1.07571905895341      0.92013500421208     -1.10810774170506
  H           0.04943983273805      0.91824695784801      1.80381639863191
  H          -1.33762703390521      1.75530482476921     -0.81270718297530
  H          -2.08538118125112      1.61823439829605      0.84243642256501
  N           0.44846146270564     -2.14572933349852      1.91397035648314
  H           2.22601868192394      0.19241308695437      1.36541274176801
