16
Coordinates from ORCA-job NEB_reactant E -30.683640489880
  C           2.08276171477963      0.34620722174094     -0.20664459231991
  C           1.67823164282271      1.34818383525728     -0.99896584738727
  C           2.23511249259688      0.40310966122388      1.18558553922852
  H           2.32714196947771     -0.61074085974991     -0.64385877884775
  I           1.53534319972622      1.03859254207423     -3.08425540982186
  C           3.84569144680799      3.36054605185106      0.33544993418192
  C           2.77833749144113      3.22799362431787      1.11202718555929
  C           1.37801031091559      3.09596558268255      0.59075804352852
  O           1.31115390180991      2.59391702631050     -0.73941208618468
  O           5.11989702543872      3.46372626515905      0.75686035272603
  H           3.78723557858175      3.39616543247069     -0.74390877092567
  H           2.87336546366938      3.19372973295132      2.18738445824886
  H           0.88902988616226      4.07461746544699      0.52384227199797
  H           0.78855972699457      2.45780772538454      1.25956307474496
  N           2.37940782437516      0.37394140952546      2.32499883629088
  H           5.15742032440038      3.41683728335354      1.72137578898018
