18
Coordinates from ORCA-job NEB_reactant E -34.458187398360
  C           1.13512328032097     -0.08670152783692     -0.24214225579293
  C           1.03934449010250     -0.66361681680989      0.95248079709914
  O           1.44342328998577     -0.78603264649377     -1.36648661888785
  H           0.97114841291528      0.97964515856489     -0.32949199644866
  F           0.63270477603093      0.11532843443723      2.00113944606569
  C          -1.22820482415688     -4.16950517430606      0.76540098950739
  C          -0.87326343815183     -2.94523251865138      1.10256712657903
  C           0.29795129906678     -2.64738840685364      1.98385004717146
  O           1.31840633149532     -1.93030516527550      1.28067234399375
  F          -2.28068592952485     -4.40778465163968     -0.02872619921487
  H          -0.75092834229443     -5.08296405000359      1.09018135197957
  H          -1.41735480658390     -2.09724028655493      0.71163277189009
  H           0.78393525439905     -3.56492152128853      2.31825097628092
  H          -0.02466299230613     -2.06396253694021      2.85614776588378
  C           1.86828280038139      0.00000655758686     -2.45669555782175
  H           1.98526517993103     -0.68338881480942     -3.29522154834690
  H           2.82681522362745      0.48585766402236     -2.24726561003065
  H           1.12619999476154      0.76460630285218     -2.70999382990720
