19
Coordinates from ORCA-job NEB_product E -48.764321649550
  C           1.61372602358411     -1.94088004978899      1.12078583826915
  C           1.54087527258311     -0.49761811805543      1.58435122789355
  C           1.32282692476404     -2.02517078540809     -0.38257719670291
  H           2.63815491447047     -2.30900233466546      1.27869161577776
  F           2.72967941601412     -0.10792908971155      2.09888512072055
  C           0.68320114928387     -2.79695267958096      2.01130781373483
  C          -0.77127297415414     -2.77711310934869      1.65764077706018
  C          -1.65987308941840     -2.05741623942987      2.31665423634429
  O           0.62786818728336      0.24177095601204      1.58065515589086
  N           1.19706533167993     -4.22036949813378      2.02869138411095
  H           0.81436761776082     -2.44967313410797      3.04553306897111
  H          -1.06221485136907     -3.41423252745986      0.83641746659808
  H          -1.38771942114180     -1.42249104922607      3.14342655965548
  H          -2.69802664220803     -2.06119553949286      2.03798671046001
  Cl          1.27894407648237     -3.72822890354404     -0.90496934672618
  Cl         -0.19901696139014     -1.23972936061067     -0.84188554058273
  Cl          2.65478457818578     -1.19824348231249     -1.24464368497574
  O           0.37468200283365     -5.09029837924073      2.07228662690549
  O           2.39144844475596     -4.36162667589450      2.05656216659528
