19
Coordinates from ORCA-job NEB_product E -39.681852801140
  C           3.07716965250262     -0.53489497773011     -1.22890162159051
  C           1.63486387951312     -0.85191704095381     -0.87208149261101
  N           3.43329792044112      0.81036970827744     -0.88112733753283
  H           3.72214710199074     -1.23107439455297     -0.67682857808018
  Br          1.19488137745559     -2.75646354851776     -1.06608126820488
  C           3.25378034655416     -0.80708748730918     -2.74839198130047
  C           2.21798347374173     -0.07065467922601     -3.55306996875037
  C           1.33379910080650     -0.68069330375711     -4.31946458228092
  O           0.80593850889014     -0.09766697117405     -0.50332558930033
  C           4.65361607745074     -0.46408874729705     -3.24150710095337
  H           3.12414903249035     -1.88626815565454     -2.90350709992413
  H           2.23681646532147      1.00753079659667     -3.47359178798496
  H           1.30268741087174     -1.75382889616578     -4.41707877809644
  H           0.60188829574405     -0.12718196696968     -4.88057573100345
  H           3.57488405189681      0.92331084868461      0.11432512618100
  H           2.73360220262466      1.47983535995897     -1.18193812514538
  Br          4.83327766129227     -1.12187706768987     -5.07936376286616
  Br          5.05190770339748      1.43009316690095     -3.27405720048027
  Br          6.02630973701469     -1.34814264342074     -2.17133312007532
