19
Coordinates from ORCA-job NEB E -41.350658437510
  C           1.06837852853544      0.45131081945496     -0.48801990580382
  C           0.32309893808536      1.61176780478787     -0.56536615126462
  C           0.94918496207258     -0.56505659883853     -1.57905737435505
  H           2.06895692768349      0.47812009498993     -0.07890769010948
  I           1.11705374512742      3.23391070889347      0.68859474317698
  C          -0.10786017309936     -0.46444427682610      1.17867820929301
  C          -1.34314816184690     -0.37641383080022      0.51892322636726
  C          -1.97223481667844      0.83197484824602      0.33092616294423
  O          -0.83228300419168      1.72576118460252     -0.95809310302657
  N           0.46600276271595     -1.64846187881261      1.46420285630925
  H           0.19021962888997      0.34705786879933      1.83240077374951
  H          -1.67377912108948     -1.23645810510349     -0.04586053186486
  H          -1.82075585300717      1.63897787480952      1.03231890960854
  H          -2.88316751880139      0.87549790362447     -0.24123800835031
  F           1.76265206520832     -0.27406616115256     -2.61439703432254
  F           1.33954857576843     -1.79323288080625     -1.16045155806606
  F          -0.26984162446260     -0.72554556826388     -2.09502728466241
  H           0.24209504375107     -2.44471996297014      0.88729947304556
  H           1.37587909533897     -1.66597984463429      1.89307428733137
