19
Coordinates from ORCA-job NEB_product E -41.374822150930
  C           1.57183092497101     -1.30799393375777      1.69484309632573
  C           1.17410265040376      0.10863277755675      1.41101509256697
  C           1.24741677544976     -2.17120416984451      0.47411323566044
  H           2.65290240257314     -1.38043551224238      1.85565612275984
  I           2.20986399261540      1.51094503390540      2.69487689747371
  C           0.89271292586751     -1.81169708018703      3.01406501049743
  C          -0.55992946301272     -2.14175173090462      2.78531577760519
  C          -1.54865332553143     -1.31825675932105      3.07652891655007
  O           0.38408438180802      0.50573518925900      0.63297255513512
  N           1.69710535953674     -2.89260327568204      3.54304440910495
  H           0.96407167593120     -0.98571032988177      3.73321582569027
  H          -0.75602281542101     -3.12265018282299      2.37282738434676
  H          -1.37154049608344     -0.33888495918883      3.49125135908774
  H          -2.57646363817483     -1.58634888806556      2.90774863008045
  F           2.00645460407983     -1.80507369420025     -0.56947763008648
  F           1.51156872466207     -3.46833187998742      0.69216577456461
  F          -0.02083585748469     -2.10997471491344      0.06995415196742
  H           1.58903255688778     -3.74294377286070      3.00171674537734
  H           1.44229862092191     -3.09105211686077      4.50206664529244
