16
Coordinates from ORCA-job NEB E -31.334273888450
  C          -0.18159491268923     -1.77778929232620      0.49924048263855
  C           0.14809768036432     -1.89814492751918     -0.89697694599482
  O          -0.10490829717529     -2.77849122681345      1.33102632575878
  H          -0.24829351963009     -0.83057363055750      1.04863095812172
  Cl         -1.79180888367301     -2.42643547412774     -0.86974384867091
  C           0.04003690448785      1.99225186508816      0.60180212865751
  C           0.56815842629498      1.19549819544378     -0.32905750819973
  C          -0.23123006128784      0.45232516940067     -1.34415814089941
  O           0.31839946344170     -0.84003538241265     -1.66034798094543
  C           0.83082352027984      2.69848142342884      1.52721606141841
  H          -1.02943816092303      2.13900060827059      0.69133692292276
  H           1.64040969395291      1.06471816960063     -0.39758375837893
  H          -0.18930672300286      0.99131214694773     -2.29785448140696
  H          -1.28022981351488      0.35120387997857     -1.04106093615216
  H           0.04519295042081     -3.61511965973310      0.85411850625346
  N           1.46569173265383      3.28179813533085      2.28341221487718
