16
Coordinates from ORCA-job NEB_reactant E -31.416163271840
  C           1.57917718326432     -0.07454413616044      0.33514774820043
  C           1.12172215273404      0.87867661243177     -0.47488513311488
  O           2.78085309859205     -0.67677599591509      0.18389117473143
  H           1.00958471033636     -0.45137383512072      1.16705947117730
  Cl         -0.43883387743873      1.59174125586567     -0.19707438941988
  C           1.90803033073938      4.55598148700015     -0.20245981972446
  C           2.45142681710585      3.45530876026659     -0.71718202645014
  C           1.84341003414639      2.67887367497437     -1.84122269641338
  O           1.81945071675838      1.28038460930188     -1.57653228745805
  C           2.50683174847620      5.26792204746299      0.85572826495944
  H           0.97857809401163      4.96546325811241     -0.57687191154670
  H           3.37375573847862      3.05652312363194     -0.31461321030507
  H           2.46023646810992      2.76905626545209     -2.74161368238831
  H           0.83091731725883      3.03658707072973     -2.06128689423523
  H           3.22051505047417     -0.31017357787638     -0.59574185976347
  N           2.98784441695260      5.85094937984305      1.71745725175096
