23
Coordinates from ORCA-job NEB_reactant E -49.690321343230
  C           1.95337345325598     -0.54258683147532      0.08859760409676
  C           1.33127151870888     -1.64571235469367     -0.34321658124541
  C           2.36209168005542      0.61323499394339     -0.72995752252337
  H           2.19722381883794     -0.46345949643165      1.14059244546982
  C           0.92960333286458     -2.69111038363844      0.67807135071553
  C           2.78452361877251     -4.60486419092791     -2.10390502884302
  C           2.92053098958771     -3.28951591847809     -2.02017204646945
  C           1.92634979116671     -2.32219077618231     -2.57786638064981
  O           0.93596040922579     -1.93573382581278     -1.59004516860385
  C           3.73061681731219     -5.58889624374803     -1.51623525378518
  H           1.93416718812917     -5.02298287663294     -2.62816237322544
  H           3.76270238414108     -2.85711110984646     -1.49413524323590
  H           1.31817141907099     -2.77380889384871     -3.36261676440102
  H           2.42352394571012     -1.43117695781227     -2.97211165643776
  Br          2.46437460943807      2.21764448867941      0.39253864533147
  Br          4.18803186523826      0.31483845800914     -1.48316350974751
  Br          1.14127451499005      1.00640934469337     -2.20047446274582
  Br         -0.10762343406495     -1.91213944896008      2.14138699509889
  Br         -0.12144949096820     -4.07535001358165     -0.14786280942721
  Br          2.54043266812566     -3.51252154976677      1.44794942193726
  H           4.54664408022010     -5.09276073231882     -0.99755590400662
  H           4.13852405506752     -6.22514774715156     -2.30011867553696
  H           3.20388076511442     -6.23385793401784     -0.81373708176539
