23
Coordinates from ORCA-job NEB_product E -49.697852358930
  C           2.19519260845593     -2.10586437484450     -0.61090355424849
  C           0.87122877880611     -2.58426236881079     -0.04124495176119
  C           1.90648126115877     -0.71244933130257     -1.16801357484053
  H           2.95920585318457     -2.00831705353170      0.16739183461248
  C           0.71832311953462     -2.76077981132665      1.47171652373168
  C           2.68855408958044     -3.10766145095632     -1.68455012592955
  C           3.91251099967634     -2.59824673808651     -2.38912123247275
  C           3.98038900679214     -2.40028526864270     -3.69248958263243
  O          -0.06711546794463     -2.84356365226160     -0.73838967237902
  C           3.01759363174191     -4.45779055511879     -1.04383539288089
  H           1.88266522566772     -3.25656023734609     -2.41105788558655
  H           4.78066117069235     -2.45020690339396     -1.76016299813777
  H           3.13199336727217     -2.55566104510065     -4.33887464184950
  H           4.88845262582709     -2.06883424342014     -4.16456901244065
  Br          0.81538303196166      0.30517943810415      0.12484996183784
  Br          3.53534942754463      0.31982140629022     -1.43264427546051
  Br          0.90933934596756     -0.74239461016293     -2.82680045050236
  Br          2.00843245031733     -1.85776605360134      2.59282250986567
  Br         -1.07743934423509     -2.21712212212964      1.97953584249980
  Br          0.89150116407515     -4.68683444198289      1.79700083434198
  H           2.11722985086085     -4.96771282384710     -0.71280732585805
  H           3.69274070533587     -4.34018284676288     -0.19815885534218
  H           3.50512709772650     -5.08970491176462     -1.78199397456704
