36
Coordinates from ORCA-job P E -47.451432816880
  C          -1.80395287877234      0.36312754357258     -2.45731371474517
  C          -0.17537567041678     -1.55504549194594     -1.37269495552391
  C          -1.62000067117368     -1.88548941675988     -1.57438279042533
  C          -2.41484930465188     -0.95254130631328     -2.07412609815339
  C          -0.91492638865619      0.90135023766225     -1.31229848980626
  C          -0.10352846413635     -0.21556158454540     -0.60703420886551
  H          -1.98439300143220     -2.85956679390931     -1.28813287018027
  H          -3.47117273424599     -1.09766743792568     -2.23110619436313
  C          -2.81967794697723      1.42682097506462     -2.80567177403492
  H           0.33678627559489     -2.31717697111799     -0.78724829317594
  H          -1.17769894940983      0.21848684628327     -3.34683399821612
  H           0.31228324071743     -1.48641727840200     -2.34259476129486
  H          -1.56133035034319      1.38300146793726     -0.57614165691183
  H          -0.62647208600139     -0.43261138139188      0.33134550415774
  H          -0.25113030495038      1.66633288240412     -1.71446925251262
  N           1.25391725038121      0.12946585863978     -0.19835720382417
  O          -2.72143135939793      2.19373342862606     -3.72851763847862
  O          -3.83914922704359      1.44587626850068     -1.93840627689639
  C          -4.82967853159039      2.43817405076331     -2.15985084612530
  H          -5.58186346390026      2.29594369524727     -1.38817542127502
  H          -5.26958679012919      2.32041289665910     -3.15232958975210
  H          -4.39044777354996      3.43551971944097     -2.08909147982463
  C           2.15103765221247      0.81643474864951     -1.13394965344017
  C           3.59730382786801      0.67043576174877     -0.63774284645084
  C           2.10509793072548      0.27596013459665     -2.56125852285599
  C           1.25283159096303      0.80886249332825      1.08518964246193
  H           1.91090009878281      1.89790425459303     -1.17006369808289
  H           3.78201870554247     -0.36448268008429     -0.36254752266251
  H           3.80614237969874      1.30539871804436      0.21785415160402
  H           4.28708306382112      0.94960563521191     -1.43005016044931
  H           2.39293250078979     -0.77168713258251     -2.57499622576668
  H           2.81749412966562      0.83317938921174     -3.16685914049554
  H           1.12853778420223      0.39320037905195     -3.01758211840161
  H           0.60500965774190      0.27672774796469      1.77914355965310
  H           0.90779290607835      1.85234852430294      1.01504172861746
  H           2.25447690199320      0.80534381747310      1.50642281649677
