25
Coordinates from ORCA-job NEB E -44.366085451380
  C           0.83492983946136     -0.58369177661725     -0.22289494614890
  C          -0.56742041678395     -0.80447632384969     -0.21668621769572
  N           1.61656101497261     -1.27152433087492      0.67026321159354
  H           1.31944924206547     -0.37023251529185     -1.16909934800051
  C          -1.36844620357282     -0.50117366965723     -1.45965039494392
  C           0.54498292427762      1.31160124715943      0.52574083733787
  C          -0.04078281787960      1.05099754605744      1.76842877933830
  C          -1.34141543766669      0.54501111427244      1.79486457487696
  O          -1.14453058928841     -0.99520821671523      0.90686732405059
  C           1.92278644555915      1.89366517504643      0.49450964834116
  H          -0.06780532543922      1.71838346885597     -0.26935331677307
  H           0.61169446499177      0.86879851857966      2.61104009339294
  H          -2.07360432267430      0.96732690784643      1.12094556673329
  H          -1.74519499442135      0.20165540958610      2.73442611527441
  H           1.13798650940452     -1.50373444092520      1.53047538231312
  H           2.56612700478843     -0.95991019275205      0.80034816470254
  C          -1.51655660954886     -1.76842283701916     -2.30506587171570
  H          -0.87306045692924      0.27011261372358     -2.05322053999210
  H          -2.35946428608948     -0.14787871420451     -1.16814317029589
  H          -0.53926098654933     -2.13767531039239     -2.60637115707178
  H          -2.10264060111673     -1.56119216776045     -3.19712446858419
  H          -2.01640134113709     -2.54460737281523     -1.73150533833900
  F           2.50192431412643      1.80152310331838     -0.71700066897778
  F           1.92518004885621      3.20648540302399      0.79960876555580
  F           2.77496258059351      1.31416736140528      1.35859697502803
