25
Coordinates from ORCA-job NEB_reactant E -44.389872701010
  C           1.17363062631126      0.14797765247942     -0.16163114121488
  C           1.35550575902577      1.41111644454473     -0.55829681957295
  N           1.36500139138562     -0.30511801791839      1.13388672644928
  H           0.91614411103279     -0.61040156188639     -0.88525516876480
  C           1.26437747277554      1.83852085192381     -1.99875886103079
  C           2.62016934687841      4.80683757682293     -0.66936245863250
  C           3.45437608509165      3.90785517409550     -0.17231295665866
  C           3.00126393916372      2.69126147839354      0.57785492935106
  O           1.63376313811202      2.38709309031929      0.40879085410575
  C           3.06619765033088      6.01852735979448     -1.41495105336102
  H           1.54985884119054      4.71087278159595     -0.56783822738775
  H           4.52521607759339      4.02632296535903     -0.26803095023700
  H           3.15238553832153      2.88511942758673      1.64957073860522
  H           3.62646885300259      1.83209410726190      0.30264014004315
  H           1.38434086565081      0.44691065048950      1.80970081753180
  H           0.76612240814704     -1.06681890438654      1.41353733881645
  C           2.59247014282760      1.69116212479874     -2.74649401679501
  H           0.93953701289667      2.87861061810485     -2.04193782956401
  H           0.51046627463990      1.22728669120072     -2.49806342177915
  H           3.35099217266137      2.34884471570878     -2.32869262654957
  H           2.46052172843221      1.94912445174968     -3.79457254815757
  H           2.94856490838780      0.66533704276191     -2.68318092463536
  F           4.39898577237443      6.11759405581811     -1.53162967722733
  F           2.57346942909824      6.04861876985655     -2.66878023399437
  F           2.65057045466822      7.15715045352517     -0.82869262934001
