19
Coordinates from ORCA-job NEB E -40.816917145470
  C          -0.28039332396410     -0.00085355695001      1.29556137946894
  C          -1.32482198853604     -0.69652315098697      0.66368767858239
  F          -0.49368536990960      1.26340267675696      1.69209203047968
  H           0.31912665021412     -0.53982990672564      2.02790474772770
  N          -1.16909300052731     -2.13315124673138      0.59800388255707
  C           0.87267113671000      0.31684410115470     -0.22059847825302
  C          -0.03159521117807      0.90669092553800     -1.09807805426532
  C          -1.17028392099590      0.13937877277945     -1.55851189717387
  O          -2.00656161043629     -0.13708617536213     -0.30418158480255
  C           2.02267712294041      1.14097000578748      0.31676117203990
  H           1.15493434705086     -0.71822395050147     -0.39806897332571
  H          -0.10462492059557      1.98511141762044     -1.12021252851314
  H          -0.94078610572351     -0.84987511062605     -1.95909643288650
  H          -1.85763776954454      0.67855263401820     -2.20258600443978
  O          -1.72463587325477     -2.70702694591014     -0.31321358993451
  O          -0.48534105152519     -2.66002218131140      1.45731192253792
  F           3.07952883082161      1.04513918899350     -0.55336429798616
  H           2.37871695359728      0.76585503947109      1.28162671998709
  H           1.76180510485659      2.20064746298538      0.39496230819987
