19
Coordinates from ORCA-job NEB_product E -40.839866674830
  C           2.98213993655425      0.04834908900058     -0.70664686356072
  C           1.60116318345619     -0.48819584788225     -0.97688994272177
  F           2.86012499310578      1.28386505124970     -0.12487520625726
  H           3.50868229806171     -0.59420459969125      0.01168963848721
  N           1.62999955194313     -1.98001192830544     -1.40525406247185
  C           3.76909354804540      0.15262345563274     -2.03378475300954
  C           2.90351464776896      0.75806232851011     -3.10638997559953
  C           2.58045058696830      0.13366960667115     -4.22225122614272
  O           0.55308601846766      0.04920588538652     -0.92790040684479
  C           5.02952035711836      0.99667656048259     -1.80247453835250
  H           4.08156350245573     -0.85469341508753     -2.32636976290492
  H           2.55286069659505      1.76027141029589     -2.90127444576825
  H           2.93099294970010     -0.86212398157735     -4.44060330847840
  H           1.96183464724780      0.59729002841906     -4.96989318929033
  O           0.59084461322199     -2.42098675958795     -1.80281058994309
  O           2.68605198554589     -2.55618654570811     -1.29981402224376
  F           5.84549137903892      0.89807483779347     -2.89455757903908
  H           5.60002919982292      0.63092976708302     -0.94201049619982
  H           4.78515590488186      2.05528505731505     -1.67268926965888
