19
Coordinates from ORCA-job NEB_reactant E -40.839316690940
  C           1.03011432026072      0.07836516065608     -0.05928944847611
  C           1.53617260189884     -0.38756838940436     -1.21100712857402
  F           0.14410362505077      1.06454220583761     -0.02524919771253
  H           1.27627478015354     -0.32982446581804      0.90912938849656
  N           2.47325337337292     -1.49874649590534     -1.09492537202075
  C           4.56334642683817      0.06660147572170     -2.98773969564550
  C           3.40473850922097      0.70592998766177     -2.99029662947808
  C           2.12596628132331      0.09728669005387     -3.47354793785475
  O           1.14667136964589      0.02307126919851     -2.42030962412296
  C           5.84287565107594      0.63764737006006     -2.47391159357797
  H           4.65109171469181     -0.94125714189446     -3.37057407785596
  H           3.32808604194695      1.70794455154190     -2.59028750153284
  H           2.29660291543760     -0.89757206880903     -3.89635145075621
  H           1.64352427748410      0.73455786172235     -4.21872288183896
  O           2.57301193450768     -2.24332856665894     -2.04349714063537
  O           3.08050379216773     -1.60461321045861     -0.05214205917014
  F           5.68953031803188      1.92313538493050     -2.02422286868960
  H           6.60439253071615      0.66307402494794     -3.26305701059097
  H           6.21673953617505      0.04545435661649     -1.62899776996383
