24
Coordinates from ORCA-job NEB E -44.943338938070
  C           0.06838725344643      0.28554603256379      0.39556843132035
  C           0.38505148438199     -1.15063603824604      0.12459143195378
  O           1.08571244364823      0.96672557950233      1.11837680727544
  H          -0.87486743221103      0.36410782199818      0.96744496300033
  C          -0.15933811116486     -2.23891618685646      0.97850605576698
  C          -0.05304094915546      1.06863698412287     -0.94844406022072
  C          -0.65676935481938      0.23123916174951     -1.98816958537569
  C          -0.15277978790179     -1.13451023629639     -2.17762234967371
  O           0.73446691489705     -1.55019502130679     -1.13904161931633
  C          -0.75399874727130      2.40367362284958     -0.74156927708336
  H           1.00265294492085      1.25060727819675     -1.21136695407637
  H          -1.50288297403349      0.56774191591483     -2.55998598284197
  H           0.43518178407858     -1.23494969399866     -3.10222481460526
  H          -0.99028080373765     -1.85176448216880     -2.25224764487022
  C           1.27560653006852      0.51094810303351      2.43636129918458
  H           0.34354704142210      0.55730883590144      3.01064988603689
  H           2.01231981905087      1.17840072678185      2.87868811378786
  H           1.65545054730050     -0.51548397452484      2.45565663304299
  F          -0.78493905844945     -1.78596037892517      2.07856294673555
  F          -1.07187749849096     -3.01079391053405      0.32542281895092
  F           0.77348760117074     -3.11056293385124      1.41750913564535
  H          -1.79533412130291      2.25051140613990     -0.46720150882429
  H          -0.71687028222519      2.99508836506930     -1.65290846138520
  H          -0.25888524362239      2.95323702288460      0.05344373557211
