24
Coordinates from ORCA-job NEB_product E -45.014150433750
  C           1.23710523386738      1.37772687560896     -1.01605532820925
  C           1.65196201827796     -0.05608093282882     -1.29513590568253
  O           2.32211123426365      2.15411658713883     -0.59005348767379
  H           0.42474205410401      1.39915709403499     -0.27202427114815
  C           0.61135394982944     -1.15521135361334     -0.90896235493015
  C           0.74633062784827      1.96300390451855     -2.36889637729822
  C          -0.21573860384822      1.02085216528575     -3.03469322816355
  C           0.08049587224354      0.28364653426994     -4.08853504516601
  O           2.69946345871815     -0.39841842339467     -1.75692530358444
  C           0.11126968322693      3.32995881118053     -2.13430165967646
  H           1.64357537474989      2.07526600028202     -2.98427493299042
  H          -1.20266879520774      0.97983162550570     -2.59310181873718
  H           1.05702823822212      0.31057325001841     -4.54378374219775
  H          -0.63729686539300     -0.38079872318823     -4.53720820023878
  C           2.77637218063118      1.84721719353497      0.70874321975502
  H           1.96947247829417      1.95330756570207      1.44396358458676
  H           3.56437983859751      2.56421172681361      0.92706854194577
  H           3.18289198695804      0.83230240502566      0.76866652887762
  F          -0.61863598729160     -0.68384048169528     -0.66271488239118
  F           0.49514591634792     -2.08773067722213     -1.85272908778967
  F           1.01373913322212     -1.76486546677442      0.21839528892680
  H          -0.78845826666684      3.23588120128467     -1.52993002018111
  H          -0.15612155747735      3.77614760369260     -3.08872795282449
  H           0.81468079648247      3.98164551481964     -1.62408356520883
