24
Coordinates from ORCA-job NEB_reactant E -45.018380117300
  C           1.58519419720935      0.45830275363419     -0.15719457987186
  C           1.31039861328074     -0.21875081336404     -1.28050646306177
  O           2.44839222206605      1.49015884856851     -0.12800946812785
  H           1.11718292162233      0.17161534091719      0.77663818772851
  C           0.28385467083751     -1.32247271301703     -1.23622375639417
  C           0.47164684168692      2.41852113370352     -2.84265483360744
  C           0.27205722118828      1.35923809333360     -3.60837307230446
  C           1.16085489416864      0.14820322049799     -3.62795053398447
  O           1.96283332165015      0.00128299365522     -2.45946769541839
  C          -0.41320458361773      3.61776064871839     -2.81447339832315
  H           1.32765069720139      2.44840977796266     -2.18150820054105
  H          -0.57015676150012      1.30863565588913     -4.28444112881631
  H           1.89420047770708      0.22566304115367     -4.43770030542479
  H           0.55852548228075     -0.75171556399746     -3.80647382493113
  C           2.76108313138118      1.99084020889835      1.15432413008581
  H           3.41033362036540      2.84918521912873      0.99410938067287
  H           3.28900621966963      1.24248418365354      1.75262498941449
  H           1.85948237432735      2.30833824127437      1.68728412837684
  F          -0.92979318813053     -0.94164096118942     -1.69235871676074
  F           0.63432846584433     -2.38841862590808     -1.96887138453630
  F           0.07128960817547     -1.77137219138599      0.01187411458423
  H          -0.81823023765324      3.76183284642781     -1.81311985469388
  H          -1.23784909141893      3.51317080928272     -3.51498161525911
  H           0.15811888165801      4.50962785216245     -3.06974609880589
