20
Coordinates from ORCA-job NEB E -40.517650709970
  C           0.31437905453717      0.99466244297904      0.59474508141404
  C          -0.98177999046019      1.00990075734668      1.11529595137599
  C           0.58100939851550      1.82642251605971     -0.63309607108660
  H           1.12733310053227      1.11418144383051      1.30494785229348
  I          -1.11184174002215      0.66722442837436      3.25634564907091
  C           0.38404032486745     -0.97936318539318      0.15997811478496
  C          -0.77591090600683     -1.13965934658729     -0.59108763021197
  C          -2.03712362831026     -0.88552999904801      0.00483168635624
  O          -2.00631176577939      0.72194612146333      0.44030992421656
  C           1.71721891756362     -1.29884155909970     -0.44541018178375
  H           0.32724959171887     -1.24627091775610      1.21201176172983
  H          -0.70266192367126     -1.12445382059481     -1.66770843270517
  H          -2.21546865012463     -1.31101740757498      0.98963401158500
  H          -2.90664748268629     -0.92674562068545     -0.63815533671540
  Cl         -0.47994994208840      1.53086938903821     -2.00843445705399
  Cl          0.34307476038390      3.55832885400209     -0.14843262587255
  Cl          2.26741007555361      1.69733857022402     -1.16937407600981
  H           2.52896942319788     -0.82235515498058      0.09615753977047
  H           1.76219538226314     -1.00948440045794     -1.49087305714923
  H           1.86481600001598     -2.37715311113989     -0.38168570400904
