20
Coordinates from ORCA-job NEB_product E -40.560829004440
  C           2.48619871571426     -1.69454664779796     -0.23821283806043
  C           1.39389707376170     -1.27391477467094      0.70839110532749
  C           2.49511387332879     -0.74036112339673     -1.43402682712900
  H           3.45857517047750     -1.58220578905623      0.25235797461395
  I           1.91606350593058     -1.70172524391958      2.77413387043241
  C           2.28122407384061     -3.22255256207920     -0.49670496876577
  C           1.08215820307065     -3.52435546028440     -1.34846907446187
  C          -0.11083104799812     -3.80696761313107     -0.85969007674613
  O           0.33556086027034     -0.82100365496917      0.46650227737306
  C           3.53175616417987     -3.89149123740357     -1.06235685475100
  H           2.10690897226997     -3.64960929599880      0.49943962119289
  H           1.25519710530228     -3.52952594844712     -2.41488707705987
  H          -0.30820218750194     -3.82144238224700      0.20031098014798
  H          -0.94629120190075     -4.03140092308725     -1.49910085017465
  Cl          1.00998616994389     -0.74792739005668     -2.39206540566822
  Cl          2.71338948369123      0.92585540572207     -0.77669353426502
  Cl          3.87143092564597     -1.04982172226541     -2.50759004098472
  H           4.40958035419014     -3.64023818307876     -0.47259204387835
  H           3.70753117247168     -3.60339394602261     -2.09331599070788
  H           3.39395261331136     -4.96977150780958     -1.02863024643487
