20
Coordinates from ORCA-job NEB E -41.986271621110
  C           0.79217456717955     -0.89174978175771     -0.35589867068140
  C          -0.38478158714757     -1.42882751636526      0.16051610343038
  H           1.66265958177420     -0.90452193326474      0.28276001764028
  H           1.00612439474354     -1.07621656682141     -1.40042655436313
  C          -1.49617388416529     -1.78122351024110     -0.81445904257098
  C           0.43456198191728      0.98885326027445     -0.20661717004803
  C           0.09029458368498      1.09603066614952      1.13866183242830
  C          -1.06017075095090      0.37866615431417      1.60945177962722
  O          -0.74348567507573     -1.15099212346408      1.39094582947910
  C           1.69824846344406      1.65494048034179     -0.69662034427231
  H          -0.36083157508285      1.04219648017586     -0.94261201360357
  H           0.87734118339987      1.31061307753630      1.84789601923088
  H          -1.97278709028855      0.52867065637985      1.03464850897400
  H          -1.24138456484680      0.43081748446837      2.67713273176448
  F          -2.45002170835451     -2.53457771182018     -0.26793752223615
  F          -2.12511652454323     -0.67802605311555     -1.30643221239741
  F          -1.03260189019959     -2.43541203045115     -1.89083873949004
  F           2.73784947171362      1.44526558749638      0.17220121422636
  H           1.55452574665441      2.73989078352983     -0.76287156896194
  H           2.01357527614351      1.26560259663463     -1.66950019817605
