20
Coordinates from ORCA-job NEB_reactant E -42.015049101080
  C           1.60789229243558      0.19158263655021     -0.00516764506206
  C           1.56722297979018      1.06656234425283     -1.00133472191772
  H           2.07299038715396      0.41148803414569      0.93678676111658
  H           1.16547973657987     -0.77949786017988     -0.11773047679629
  C           0.91068379866653      0.73389578823457     -2.32775181152959
  C           2.99422920998684      4.89200345370508     -1.30420932125286
  C           3.18944496849139      4.22727207656677     -0.17909677111209
  C           2.72316115845218      2.82862766433494      0.07766661372021
  O           2.05648461338541      2.32282127412552     -1.06386205119119
  C           3.46351987585210      6.28831241453756     -1.54887797046050
  H           2.46715421909386      4.44468621405608     -2.13300774502563
  H           3.71758582530094      4.67850305217846      0.64877548886867
  H           2.04207796936503      2.82000637054821      0.94156426781351
  H           3.58602623902414      2.18989343042513      0.31799957348909
  F          -0.03977890646977      1.62073631113574     -2.65356660059516
  F           1.79535603727526      0.73450638145264     -3.33631373525250
  F           0.32932006629602     -0.47102520512871     -2.33003174823333
  F           4.12750369229180      6.80972282679117     -0.46700746991668
  H           2.61603651651913      6.95495379378937     -1.75185937644832
  H           4.16050932050955      6.32344899847862     -2.39547526021414
