20
Coordinates from ORCA-job NEB_product E -42.018932887110
  C           2.26466681579733      2.25124006773517     -1.34800093981025
  C           1.07368693511665      2.28625138891026     -2.25201932611208
  H           2.11239404556011      1.42562891428907     -0.64371711176461
  H           3.14937946967642      1.99811938845633     -1.94072193693859
  C           0.94211687695078      0.97587454721185     -3.09541169623387
  C           2.48060348619390      3.55580010686112     -0.57043700149692
  C           3.48833775656899      3.33941498410895      0.52341039052582
  C           3.25348786003444      3.56912990607584      1.80023270633205
  O           0.27015423112923      3.16138652678798     -2.37068388053354
  C           2.96544243829604      4.66055517789052     -1.51677674853778
  H           1.53003967824047      3.87765680183321     -0.13473665802384
  H           4.45743494567010      2.98949988571305      0.19241757676545
  H           2.29866724409755      3.92952036951495      2.14511004801456
  H           4.00693426049405      3.41573857509316      2.55295163178617
  F          -0.13607379596868      0.96670518386074     -3.86922651749191
  F           2.01578450837026      0.81590892206877     -3.88807865175174
  F           0.88613007626853     -0.10548029593264     -2.30131412030585
  F           3.09916814524630      5.83866428830245     -0.83110592318346
  H           2.24430333766050      4.84277680170511     -2.31924586019194
  H           3.95104168459703      4.42590845951412     -1.93484598104766
