18
Coordinates from ORCA-job NEB E -25.977219682660
  C           1.07382403706756     -0.10742033360728     -0.39918842748318
  C           0.60971911205828      1.01494206467916     -1.09598678201775
  C           0.68087748477009     -1.48746126164310     -0.86011597512103
  H           2.09599949926361     -0.04510950381146     -0.03094386788605
  H           1.15913921881517      1.95899635330838     -0.98142780584278
  C           0.00957780157984      0.10624690532878      1.21808523371919
  C          -1.29500832594968      0.11936327588211      0.70131454197261
  C          -1.67454250282895      1.16919485183605     -0.14830130372168
  O          -0.60715119919080      1.07256325512543     -1.49663870741513
  O           0.35259502857648     -0.96091058159781      2.00788158311631
  H           0.42904551901002      1.05721113067093      1.54422738520312
  H          -1.79004170050679     -0.83571526162456      0.61762060066310
  H          -1.42148416646956      2.17952661446550      0.15176925563016
  H          -2.63669762597119      1.09396952675289     -0.63398213780199
  H           0.57815077009796     -2.17212690606380     -0.02046964950606
  H           1.45167690294950     -1.87375411313085     -1.52621929605923
  H          -0.25927898089970     -1.44068570595687     -1.40265821462900
  H           1.24359912762815     -0.84883031061353      2.35503356717939
