20
Coordinates from ORCA-job NEB_product E -50.106543920110
  C           1.26019798723477     -1.89236081657473     -1.26967641463263
  C           0.53443013813156     -1.35380751796045     -0.04709231307449
  C           1.42169713267398     -0.74368024043538     -2.26472771165861
  H           2.27615168942074     -2.19290553783029     -0.97792638634727
  Br          1.14564724748207     -2.20824123976759      1.59973001621293
  C           0.46626130123503     -3.20302525340403     -1.58788249454968
  C          -1.02146733676411     -2.99994050975039     -1.73328247603944
  C          -1.87591315579831     -3.28326475291262     -0.76780253471781
  O          -0.34094369665755     -0.56603145556673     -0.01236350085550
  C           0.97748329585320     -4.09099744791574     -2.72184014830598
  H           0.62492725613399     -3.80413617144913     -0.67781496871523
  H          -1.37769724724598     -2.63370960474647     -2.68402074319477
  H          -1.56335332675146     -3.66761908109344      0.19011509165230
  H          -2.93224415800984     -3.13677095695021     -0.90282203847418
  Br          2.18119345679805      0.79056624981076     -1.24839770245855
  Br          2.75926153331229     -1.11116649131157     -3.63752119245872
  Br         -0.20940584450458     -0.13182967183894     -3.10352534372376
  Br          0.09035202101896     -5.83908605168668     -2.51949291053698
  Br          0.53803973374409     -3.46840373805168     -4.51287648115094
  Br          2.90228197269311     -4.42238971056468     -2.57577974697068
