20
Coordinates from ORCA-job NEB_reactant E -50.106625112740
  C           1.53380906544009      0.15893148240012     -0.04419596896176
  C           0.88854648198152     -0.99360804091872      0.18588878289329
  C           1.84479662288191      0.55527112645049     -1.43013306809357
  H           1.82867810736135      0.80525101543121      0.76444442967241
  Br          0.48190015445362     -1.52532189871116      1.96690335043041
  C          -0.07708499897870     -4.81502116218524     -2.35727860630959
  C          -0.35754950904700     -3.57042494645875     -2.00864162039748
  C          -0.10332482168609     -3.02153705762796     -0.64265417427297
  O           0.52632531943142     -1.76475579790720     -0.82861957369493
  C          -0.31604343169268     -5.41905328124471     -3.68629719108925
  H           0.35246161910148     -5.51083645607024     -1.64595263038043
  H          -0.77512184091019     -2.85643711920191     -2.70530395816467
  H           0.53767990719863     -3.68750023036323     -0.05300831628164
  H          -1.05848024838979     -2.88379860729854     -0.11510282538907
  Br          2.79208071380090      2.24651942273389     -1.48912354334299
  Br          2.95734385843742     -0.80528364006665     -2.34102142167908
  Br          0.20242538258065      0.73344786374352     -2.51861680226847
  Br         -1.58831627323637     -6.91762730803353     -3.48301223948314
  Br         -1.03048096111528     -4.20688045554269     -5.01911657978171
  Br          1.37935485238711     -6.15343490912868     -4.37305804340534
