27
Coordinates from ORCA-job NEB_product E -35.974078593990
  C           2.18777790253851     -1.59334082505573      0.64347792640001
  C           0.91871768619159     -1.46408343884578      1.47472572034064
  C           2.06965090072400     -0.65902963475225     -0.57264303195229
  H           3.03040339552695     -1.25237182069817      1.25679753499766
  C           0.88444567878956     -0.26812889947330      2.40112007287255
  C           2.42663735088927     -3.07908380964640      0.25814235771977
  C           1.72178782503673     -3.52117031324486     -0.99978715707451
  C           0.62012039674173     -4.24579796750701     -0.99491796937617
  O           0.02500572789754     -2.26991182124436      1.43467486343339
  C           3.84287557760750     -3.32014223137743      0.11909411788688
  H           2.06643969252190     -3.69525614658313      1.09226744547590
  H           2.18753220198323     -3.22531695284231     -1.93030414478955
  H           0.14208542047597     -4.54580462509136     -0.07777450482922
  H           0.13947445299962     -4.54587619659391     -1.91047662614012
  C           3.39699699857162     -0.47488868957645     -1.29849195091824
  H           1.71745311308977      0.31793937454559     -0.23252857444564
  H           1.31552702897303     -1.05690170730147     -1.25433896859467
  H           4.14151688026966     -0.04584618262213     -0.63105947046519
  H           3.26773459193173      0.19573108768458     -2.14477065802776
  H           3.78462349133841     -1.42079853615142     -1.66700550143163
  C           1.43483203673814     -0.69617673951218      3.76531168953261
  H          -0.15001920402196      0.05701310385950      2.51973038358727
  H           1.48138878666743      0.55341936787747      2.00580737284393
  H           0.84623989332903     -1.51786903406594      4.16602694705354
  H           1.38885931974714      0.13635365871331      4.46266835624305
  H           2.47041478049509     -1.01969190339735      3.68240796711453
  N           4.96497807294681     -3.51446911709751      0.01254580254324
