27
Coordinates from ORCA-job NEB_reactant E -35.958493606030
  C           1.74032059374183     -0.40442997159850      0.27695065951411
  C           0.93291766450268     -0.92397025665559      1.19811248642405
  C           2.13842337693004     -0.89262657819375     -1.09008136191199
  H           2.18161159400568      0.54540919616221      0.54326276103605
  C           0.69119050505804     -0.22140911846398      2.51252232232980
  C           2.34746354305320     -4.71060359291379     -0.26483306024794
  C           1.85622907926847     -3.72127130478290      0.48144389263687
  C           0.49205664891960     -3.13280919571628      0.29475014982647
  O           0.20555119915156     -2.09205314842755      1.19233620468148
  C           3.63413565697559     -5.24059271345839     -0.05803418887636
  H           1.78177306874647     -5.15250694007809     -1.07546317531059
  H           2.44253328034553     -3.29938463652689      1.28742889493801
  H          -0.26626649193618     -3.89469206812429      0.51830214069373
  H           0.34523660139507     -2.81921556286085     -0.74720334813860
  C           3.19398094526795      0.01934223892724     -1.70732710527851
  H           1.26512646812590     -0.91293509316685     -1.75074469400563
  H           2.54326554609026     -1.90781606903490     -1.04083609898234
  H           2.81362008341694      1.03372631720410     -1.80497325697436
  H           3.47433975497292     -0.33943776274488     -2.69527640509733
  H           4.08598939489672      0.04241707908623     -1.08534674371035
  C           1.58476426001972     -0.80182288754055      3.60885132741729
  H          -0.35457235605946     -0.36539678957678      2.78816662139651
  H           0.88239299278963      0.84563271552344      2.40455794157906
  H           1.38626725440327     -1.86368891612199      3.73360363833324
  H           1.39471634095660     -0.30238720625227      4.55573483801356
  H           2.63394267267208     -0.67043512202870      3.35219518924017
  N           4.68339032228990     -5.67614261263546      0.09960037047361
