17
Coordinates from ORCA-job NEB E -38.817065023760
  C          -0.09794886420861      0.66393917064626     -1.32601805046598
  C          -1.44361771856491      0.32275113382251     -1.18817758866132
  F           0.68722763101794     -0.20018175856057     -1.98188395141159
  H           0.19108553584372      1.69365148059032     -1.51649594358397
  F          -2.23357200201961      1.37492056553592     -0.78034402544850
  C           0.42159241269542      0.28134371710910      0.57388230294538
  C          -0.00204511497151     -1.03502488297570      0.70637243057345
  C          -1.39618009829616     -1.29722329183727      0.64412895392395
  O          -1.84755549881838     -0.83322140028259     -0.88483753825422
  C           1.89598593338564      0.60328723633202      0.64370108079091
  H          -0.17751118250054      1.07578377104260      1.00913998788930
  H           0.68960421364545     -1.82389210629520      0.44909091257542
  H          -2.04494634964962     -0.65056976703804      1.22767494749112
  H          -1.70527694651701     -2.33372209050670      0.65026855156590
  F           2.65748462645424     -0.29651846310555     -0.00845065052405
  F           2.15801068466630      1.81352374784932      0.09155340212719
  H           2.24766273783764      0.64115293767358      1.69039517846702
