17
Coordinates from ORCA-job NEB_product E -38.863895693250
  C           3.19536512729021      0.88773264227707      1.45375336725593
  C           1.71006949698296      0.91595053176904      1.17991733752225
  F           3.77920278242970      0.01309804273633      0.58348586652313
  H           3.62167220535191      1.88365202077691      1.25933134998582
  F           1.13492154431851      1.88996505918020      1.94605956463487
  C           3.45150738859563      0.47310550398038      2.92223602862631
  C           3.11554905637338     -0.97831934526092      3.13101300721229
  C           2.16998825552448     -1.39460155010857      3.95030286761115
  O           1.05280290499843      0.25970282350799      0.46483997648484
  C           4.91016597939190      0.74902240368144      3.30997077090676
  H           2.83277245223240      1.11094648705011      3.56250541901568
  H           3.70155196762622     -1.66957010838339      2.54249430893589
  H           1.57521637342464     -0.71024388454866      4.53354388062274
  H           1.95055648122940     -2.44075258106929      4.06819882265626
  F           5.78325565259871      0.10643394220694      2.51252757112468
  F           5.18125942287552      2.07283015400523      3.18753867275481
  H           5.11864290875599      0.45534785819917      4.35058118812658
