17
Coordinates from ORCA-job NEB_reactant E -38.842097933770
  C           1.91808912455034      0.35580035491352      0.12743107344804
  C           1.26846951738577      0.83966432361069      1.18135883345995
  F           2.77362129689451     -0.68601251934212      0.19303383537832
  H           1.81467118603117      0.77128467671221     -0.85956995460480
  F           0.44953697936546      1.87836038099504      0.95360972708524
  C           4.16693380152095      0.12436225906544      4.28033611926540
  C           3.50367087361365      0.08923730859986      3.13761263391498
  C           2.11310665860367     -0.45184539395746      3.00200187225809
  O           1.21102208830664      0.51474945121517      2.47565349234890
  C           5.56184576735423      0.65578017937377      4.41663272538107
  H           3.75425176557978     -0.25554021024243      5.20338928718444
  H           3.95616774956980      0.47033552671098      2.23259704020805
  H           1.69768022407461     -0.70410107223352      3.97982482419033
  H           2.12346113887631     -1.34995771614734      2.37346568678557
  F           6.37875754863868     -0.28518083937833      4.96012792288684
  F           6.10556316431498      0.99112381465710      3.22549148429695
  H           5.61315111531945      1.54433947544742      5.07050339651264
