22
Coordinates from ORCA-job NEB E -41.201785248530
  C           0.17275267250872     -0.75856784472638     -0.95397817478818
  C          -1.15566292900829     -0.81268882606962     -0.45237894839454
  N           1.04899286157733     -1.75651348754212     -0.60527419943093
  H           0.33102153484769     -0.35671437170180     -1.94859495684774
  C          -2.24624364893699     -0.04924775406447     -1.15676145560836
  C           0.59339813216329      0.86451920080147      0.22784672618535
  C           0.40225435482159      0.36113631127630      1.51868408985305
  C          -0.89409176961613      0.03383758854124      1.92305153736339
  O          -1.32819425118277     -1.22747509935515      0.74446668117046
  C           1.98249484399612      1.23964225116640     -0.18518468710669
  H          -0.13099119011134      1.55786086597142     -0.18271824703999
  H           1.23989702061342     -0.11751677213935      2.00659255856984
  H          -1.70145531085748      0.70714587596863      1.66978911531798
  H          -1.02781625142838     -0.49006139765532      2.85658481052529
  H           0.86463728740285     -2.15712505545707      0.30478488224672
  H           2.02665958814572     -1.61467543235472     -0.80292088966464
  H          -3.21234764395248     -0.42226285299442     -0.82678996378937
  H          -2.16280238577773     -0.16227000486854     -2.23332139743181
  H          -2.19827297509758      1.01496057471443     -0.91580087451793
  F           2.91638009590262      0.34404885686096      0.18044724823320
  F           2.11008731853993      1.38665284057108     -1.51712805332254
  F           2.36930264544988      2.41531453305705      0.34860419847745
