22
Coordinates from ORCA-job NEB_product E -41.237941231950
  C           2.32294148588189      1.83603800274154      0.50926853170009
  C           1.05755377508813      2.44214547717014     -0.12513683495642
  N           2.06861395858239      0.44783541599066      0.86814626240771
  H           3.16396638728427      1.85402792136780     -0.19171663674973
  C           1.13825872650762      2.71132808888562     -1.59860358679419
  C           2.69247816977274      2.61241344632439      1.78998333725471
  C           3.67821606405550      1.84995197886520      2.63008596375777
  C           3.48405712950226      1.56748121800725      3.90291474715157
  O           0.06520131793540      2.60919496853719      0.53818351733368
  C           3.29860275522770      3.95610132983681      1.41219990033539
  H           1.77859824323773      2.81727874292875      2.35884522576079
  H           4.57727877818407      1.54484629099438      2.11523979743758
  H           2.59028968469725      1.86758709034934      4.42444819718727
  H           4.21363169686535      1.02337701441720      4.47605268578139
  H           1.28951482895375      0.39785437295274      1.51719035137660
  H           1.82782458129526     -0.09398400977638      0.04561693672715
  H           1.82594636115541      3.54051973412254     -1.75795539795064
  H           0.16023013496348      2.97718220976884     -1.99023415589227
  H           1.53023061815592      1.84267778062936     -2.12364607223157
  F           4.44521247705381      3.82894681306246      0.72294363106195
  F           2.48817998628602      4.69598519135757      0.63358817534423
  F           3.57907283931403      4.70601092146657      2.48438542395695
