26
Coordinates from ORCA-job NEB E -35.641226186490
  C           0.05310099361197     -1.93869179252647     -0.18990473050885
  C          -1.02912864240823     -1.61865434281944     -1.11759228333276
  C          -0.15453824622516     -2.41248677079615      1.03976221525509
  H           1.05913674225942     -1.78742082941473     -0.55357782965586
  C          -0.60031403651295     -0.96900881360759     -2.42998877982459
  C           0.50442288271264      1.69528315162388      0.39861136745183
  C          -0.42236080201726      2.28557177918381     -0.61486634475889
  C          -1.71911223796824      2.04720481130058     -0.68290193138506
  O          -2.21107864880695     -1.78029572824530     -0.90565152325801
  C           1.28956043691970      2.77506482244643      1.13979700890000
  H          -0.06616906552720      1.09217587662994      1.10887633858498
  H           0.04599802987856      2.95180764283407     -1.32937188879451
  H          -2.33891440389121      2.50396340834953     -1.43632877369617
  H          -2.21590291711561      1.38832131692462      0.01019798442087
  C           0.93325492562324     -2.77892734480282      1.97901106564855
  H          -1.17133283017024     -2.54064410931251      1.38867626740716
  H           1.20399665458373      1.03190386246438     -0.11042271423799
  H           1.88016360547563     -2.33768512847809      1.67820546436922
  H           1.04661419056658     -3.86369811019235      1.99292872797086
  H           0.69109890196387     -2.46291183286422      2.99195576030116
  F           0.71483252930151     -1.19041843158271     -2.74764145600317
  H          -0.73261418987867      0.11663351190946     -2.32754147420752
  H          -1.21146381741471     -1.33913966783875     -3.25795452364823
  H           1.93627913819572      3.31857945446595      0.45441397418720
  H           1.90723582387610      2.33032185917230      1.91664002744728
  H           0.60723498296774      3.48315140517620      1.60466805136742
