26
Coordinates from ORCA-job NEB_reactant E -35.665793146720
  C           2.24563882892166      0.51775567505172     -0.00066934948777
  C           1.59499771814510      1.15348607947607     -0.96809277165762
  C           2.01824749498271      0.59104869404369      1.47966525530547
  H           3.02965461975980     -0.15564511249974     -0.31402582834070
  C           1.88760049441120      0.91180461797785     -2.43186146641982
  C           2.66574748866800      4.23903875209785      1.06819596783025
  C           1.97792386136896      3.83010460402879      0.01580965644812
  C           0.66650377681782      3.10757833581911      0.08512058692768
  O           0.56344538610689      2.06232080483058     -0.87025642008196
  C           3.96068962878348      4.97459724012219      1.00249157490381
  H           2.28398371530683      4.05651775848165      2.06550847772355
  H           2.34455622503392      4.01173002784943     -0.98583518296696
  H          -0.14881869562781      3.78710313404687     -0.19252861715014
  H           0.47997731657658      2.74588163890541      1.10213018457979
  C           2.65533240017939     -0.59721544804213      2.19222629384579
  H           0.94588585766969      0.60103701597760      1.68927693736977
  H           2.44784836003329      1.51749222799683      1.87475669007401
  H           2.23786902346488     -1.53055790037162      1.82184170405264
  H           2.47425906094461     -0.53994912503563      3.26340017109974
  H           3.72998268777773     -0.61048898137981      2.02505439305553
  F           2.69164383638876     -0.17700352476629     -2.63444474343464
  H           2.40113996495497      1.77430820236915     -2.87483975735233
  H           0.94912630697964      0.73473036216384     -2.96868041591036
  H           4.27736332845051      5.11762636215724     -0.02721756622678
  H           4.73335425083190      4.42157049129946      1.53584684444877
  H           3.86414706306946      5.94872806739991      1.48112738136415
