21
Coordinates from ORCA-job NEB E -41.817151421210
  C           0.76949267201655     -0.60139119567693     -0.12644271049044
  C          -0.27067608323058     -0.53838788252480     -1.06690131406372
  C           0.81688139888434     -1.71611947306437      0.89551664807850
  H           1.77214565271917     -0.42751322083787     -0.50923739986981
  C          -0.01585366024346      0.14678516076288     -2.39829529382556
  C           0.37195270661081      1.03263928759962      0.92192879267022
  C          -0.97458869391653      0.82587754055205      1.26147655000141
  C          -1.94924377699487      0.72686303526682      0.26154808953787
  O          -1.49229288214619     -0.65127610843401     -0.69694856533537
  O           1.25639899841581      1.06265615444652      1.95018496630872
  H           0.59725204134248      1.70955626248249      0.09678566544835
  H          -1.16321718373930      0.38932056259286      2.22942089927659
  H          -1.92958608572945      1.44153304869373     -0.55370067366603
  H          -2.94486332775799      0.44190705820344      0.56679904546709
  F           1.92407843031167     -1.58750902347706      1.67287397885670
  F          -0.23179168949140     -1.78008054550845      1.73418671565321
  H           0.89330277616064     -2.69715092687862      0.39314931731091
  F           1.32102933820680      0.29295358587078     -2.65825696729521
  H          -0.45724390569747      1.15368024464725     -2.40323281738481
  H          -0.45065577351781     -0.43796317702324     -3.21516303008808
  H           2.15747904779679      1.21361961230689      1.64430810340948
