21
Coordinates from ORCA-job NEB_reactant E -41.856094871150
  C           1.76531306107014      0.17443739425383      0.00753904686308
  C           1.57586587585235      1.43516422316005     -0.40352947354841
  C           1.41409695340184     -0.49924046491658      1.29172002688759
  H           2.21757168112222     -0.49031489783715     -0.71034139230000
  C           1.98086129135518      1.82349688915122     -1.81347016070828
  C           2.46771974556282      4.27032128397898      2.65054496930582
  C           2.18113106880348      3.04384159143217      2.23498928277782
  C           0.88526362764513      2.68781106851852      1.57838165369287
  O           1.04358587441894      2.52721808003666      0.16257372810696
  O           3.61439605274985      4.65515708335102      3.24579151554525
  H           1.77534248232950      5.09514378175120      2.55935122597884
  H           2.90544005117991      2.24833128443841      2.34047712263892
  H           0.17758630329396      3.51534100348184      1.66431439514042
  H           0.44203658132737      1.80140639890553      2.03110088944812
  F           2.11278371825009     -0.02319812753324      2.36568828816140
  F           0.10010966754505     -0.35478935476534      1.63023372149167
  H           1.61225701798323     -1.57956301319989      1.24116487773222
  F           2.36723057614052      0.75625030271588     -2.57067534626340
  H           2.82447179294737      2.52214717765850     -1.77911805702285
  H           1.13376161884032      2.29968703857641     -2.31773065917220
  H           4.21127495818073      3.90015125684198      3.33279434524417
