21
Coordinates from ORCA-job NEB_product E -41.855075078800
  C           2.03430949989239      1.21235270404328      0.69433605448705
  C           1.84293980395328      1.12862758492162     -0.81860883126688
  C           1.19561293243163      0.12069393548010      1.36681380336601
  H           3.08332565129100      1.02818064799572      0.94914280881976
  C           2.84996114077332      1.93389237486344     -1.61284071719766
  C           1.63987776359084      2.63290614029068      1.22301945956842
  C           1.63398212126190      2.63844322164403      2.72557332925540
  C           0.56209998319682      2.85545355780970      3.46193360808992
  O           0.96307690893288      0.48671408220659     -1.32003108329791
  O           2.51585899697693      3.61336087490529      0.72026178144709
  H           0.64688758045031      2.88306983128606      0.83660453338950
  H           2.60079161967828      2.46245584990757      3.18225957926261
  H          -0.40530452226654      3.01724520541707      3.01825505536792
  H           0.60922133749401      2.85991097545747      4.53682553281057
  F           1.71147190592903     -0.19425044829367      2.58172460400192
  F          -0.07502627326261      0.51464283198939      1.58505875037259
  H           1.15989807018744     -0.80214216755696      0.76771272171296
  F           2.65929665008848      1.78137484090697     -2.95422446535050
  H           3.87140466753626      1.60552078484260     -1.38826304454559
  H           2.74162891691383      2.99859606765290     -1.37020712222115
  H           3.30228524495051      3.64825110423014      1.27955364192797
