16
Coordinates from ORCA-job NEB_reactant E -36.858229354650
  C           2.02132086964167      0.66816681977997     -0.87393666843506
  C           1.00489784742176      1.47461603560392     -0.58796642982247
  Cl          3.69477180514239      0.95844437646259     -0.53720292252028
  H           1.83947940485879     -0.26958029010366     -1.37131616259450
  Br         -0.73368386943541      0.90457895847778     -1.09147914051185
  C           2.62885623963665      3.94560868705153     -1.87466049347280
  C           2.91788043848143      3.88957535241357     -0.58056057424389
  C           2.02326437240151      3.35642391007573      0.48571937218957
  O           0.88323861516412      2.66989141735885      0.00705641641033
  N           3.57133593278751      4.48377381588376     -2.81441674462175
  H           1.71132305631467      3.60931170496800     -2.33289074067076
  H           3.87396059686428      4.27043927677713     -0.24314311148071
  H           1.61208147413581      4.19789738754512      1.05682246341674
  H           2.59563808599549      2.72641637637093      1.17606356861172
  O           4.63005546022756      4.89470494803300     -2.39356478666925
  O           3.23157967036175      4.48553122330180     -3.97632404558503
