16
Coordinates from ORCA-job NEB_product E -36.871559254470
  C           2.11872153128709      1.67880757011028     -1.33237257341411
  C           0.95191985520071      1.47467023887188     -2.26725050950329
  Cl          1.66482442890517      0.81223559899154      0.17500797923171
  H           3.02617115382377      1.21102139522352     -1.72109856368826
  Br          1.09443741928498     -0.17626851586632     -3.26055557617791
  C           2.32408381285646      3.15720996201754     -1.02107191398316
  C           3.48752277449896      3.40270004937348     -0.10575323354754
  C           3.45486638661939      4.27366210752404      0.88465694893554
  O           0.00054778546138      2.16651110409347     -2.37731277015342
  N           2.58430428125343      3.87600648422054     -2.31953221565360
  H           1.41101112164312      3.59930370864376     -0.60734284495241
  H           4.37872854345553      2.83279718947348     -0.32745895629803
  H           2.57486548505227      4.85292087227397      1.10780188650882
  H           4.31274258417487      4.44143242389802      1.51120987121302
  O           2.65400451336223      3.19354193800677     -3.31152711061422
  O           2.70714832312064      5.06604787314402     -2.26110041790313
