22
Coordinates from ORCA-job NEB_product E -34.141721193970
  C           2.89869038856232     -0.48718107216710      0.72500421074780
  C           1.53418413830519      0.11244698108480      1.07985775739263
  C           2.74369089647613     -1.35095251861231     -0.42041318528556
  H           3.61344896094124      0.30945670946549      0.48626199519315
  C           1.64791281337615      1.52252165133404      1.41568555496450
  C           3.37534141586424     -1.26015270595043      1.98980150457835
  C           3.05726570668174     -0.42197882597204      3.19925428448520
  C           2.18933268624221     -0.76467627648392      4.13260520743428
  O           0.50110371374495     -0.49455228157233      1.10970042411704
  C           4.87909457465345     -1.55521669605363      1.95200917447955
  H           2.81587864322266     -2.19998246879790      2.04353813037107
  H           3.60644485130431      0.50880978779296      3.27202106174843
  H           1.99475661160622     -0.13633724738962      4.98437423631707
  H           1.63263352822520     -1.68607970185827      4.08006787458282
  N           2.59729842226415     -2.01420924218376     -1.33879839967876
  N           1.78477921949850      2.62716855242662      1.68155576978955
  C           5.29110780104156     -2.53056083219377      0.85724869416441
  H           5.14778358264175     -1.97523850368943      2.92464500017024
  H           5.42938754904676     -0.61757455570484      1.83660936958723
  H           5.13542753579718     -2.10836688564662     -0.13222412981824
  H           6.34588509186704     -2.77419670222017      0.95863329085613
  H           4.71825186863704     -3.45224716560776      0.92776217380311
