22
Coordinates from ORCA-job NEB_reactant E -34.148976621910
  C           1.67319159655868      0.06297463040547      0.19171226167865
  C           1.44601217733568      0.86289494776056      1.26184914975405
  C           1.92668250409879     -1.31248275000201      0.18141434926600
  H           1.63458431883236      0.51549468743982     -0.79093167583094
  C           1.16739781041056      2.23376764083207      0.96991628747065
  C           3.95480862816702     -1.93471984168936      2.64975657658170
  C           3.33547142975120     -0.81445899330194      2.97914955900878
  C           1.84416418001753     -0.66276490986861      3.06103131284721
  O           1.41360420870971      0.60116004324724      2.57144231713715
  C           5.43651401661166     -2.09341561022831      2.56854771180637
  H           3.37964501538456     -2.81262586905650      2.38734636473570
  H           3.89128930978671      0.07821247912312      3.23629672779647
  H           1.52251777886695     -0.65111730251950      4.10860916011486
  H           1.33260092116748     -1.47942866660960      2.54162076957710
  N           2.12484960582081     -2.44066273450782      0.09021275776924
  N           0.95566963923518      3.32524077192613      0.69876483050091
  C           5.85562080197881     -2.46815443717825      1.14689244773297
  H           5.74644811575670     -2.88871884979361      3.25186330630953
  H           5.93187823980967     -1.16945829278070      2.87273526977053
  H           5.58161281467268     -1.67761072398534      0.45199297862659
  H           6.93092343058228     -2.61934197729948      1.09539563800789
  H           5.35801345644499     -3.38228424191341      0.83318189933858
