21
Coordinates from ORCA-job NEB E -33.821941004880
  C           0.19181261413265      0.14423109551933     -0.01200000485885
  C          -0.32358097975435      1.14467781631291      0.89416552935341
  O           0.41839904306268      0.25332989731381     -1.31958416372036
  H           5.36193007045827      1.59585090984907      1.30449464586315
  N          -0.18082744389628      2.47048677581691      0.50159656506793
  C           0.30131255128508     -1.25612355204742      0.51277996075921
  C          -0.95632223925442     -2.00321456758366      0.10140854917566
  C          -1.89305985424649     -2.33268807370897      0.96506864735976
  O          -0.87747206131446      0.84423012146670      1.92620867896194
  C           1.44639342120321     -1.95443244006226     -0.03170850035609
  H           0.36381623813825     -1.22674222486597      1.60618888782334
  H          -1.05230498755637     -2.20149344890954     -0.95589995618324
  H          -1.82607520350982     -2.08547147695870      2.01348373040391
  H          -2.80032890512307     -2.82325889819270      0.65419744727048
  C          -0.07258232767401      1.32356186877872     -2.09675670727110
  H          -0.27114162131266      0.89478728649409     -3.08162752252495
  H           0.67557120418926      2.11305043091570     -2.19375852500842
  H          -0.99107928132364      1.73818077478929     -1.68023742633755
  H          -0.55579887941840      3.11000957798817      1.18176804748860
  H           0.72144137127318      2.78400431134936      0.19457607624556
  N           2.31989727064138     -2.53297618426472     -0.48436395951259
