21
Coordinates from ORCA-job NEB_reactant E -33.958563512390
  C           0.81925899379007     -0.38743221004689      0.19535555154843
  C           0.83160684959620     -0.34219215700887      1.53152441251409
  O           0.35860135649203     -1.44730724611459     -0.57237649624291
  H           1.18477162885612      0.46794781987210     -0.35877943611180
  N           1.31130943046107      0.77465969285017      2.22166838127775
  C           1.74590802414288     -4.10330691594031      0.54786367983976
  C           1.63486388726150     -3.16422173139079      1.48531891309256
  C           0.32824895540638     -2.63287018078520      1.97906205665443
  O           0.42187065094408     -1.29732920075711      2.42526256663267
  C           2.99158213330271     -4.57780319124006      0.09834697002393
  H           0.87662517009891     -4.54115687710360      0.07475396719825
  H           2.51572557005817     -2.72611585198631      1.93704898976142
  H           0.01722564793253     -3.19130731082127      2.87114862055886
  H          -0.44465110299004     -2.73224777348535      1.20805476758373
  C           1.09401583868314     -1.64652444396470     -1.75523940844436
  H           0.57412234399154     -2.42071886921384     -2.31709642538587
  H           2.11829867415893     -1.97488229241478     -1.54331748886398
  H           1.13365426281651     -0.72910137081857     -2.35350600241168
  H           0.95981354909514      0.80037529320983      3.16880448219140
  H           1.18148337888031      1.65044427098113      1.73886488165717
  N           4.00196475702181     -4.96590945382102     -0.28176298307384
