24
Coordinates from ORCA-job NEB_product E -45.470735014350
  C           2.80772102617085     -1.25034892337159      0.83794011044176
  C           2.57767814565216     -0.22857438331169      1.92603748897274
  C           1.55148307659761     -1.38092087305226      0.12392976552802
  H           3.55151138258249     -0.87016800005116      0.12757373191483
  C           2.90847146347014      1.21810685690626      1.44146285946737
  C           3.23987513806116     -2.65183087697236      1.35660089331581
  C           2.12501616319870     -3.30604082950445      2.12327676350467
  C           1.45719219230887     -4.35622696064505      1.68612009584528
  O           2.18942003418531     -0.41748837935191      3.03721889752041
  C           4.50702376998311     -2.56695271379231      2.21742398648398
  H           3.45656294886230     -3.25373687502163      0.46630042388021
  H           1.89349368623864     -2.86132675792260      3.08005604532341
  H           0.66590814381827     -4.80331093753610      2.26165441546323
  H           1.67016885107623     -4.81248533080255      0.73289974745570
  N           0.57271917147239     -1.51331165429922     -0.44670982588382
  F           4.22489612749397      1.32644656934530      1.18130608750520
  F           2.26719655987110      1.51719707909837      0.30392615282853
  F           2.59912220120866      2.14020939529527      2.34350248862818
  C           5.71736860842886     -2.01520162759079      1.47182861509610
  H           4.72996370746972     -3.58068768288063      2.55751867884359
  H           4.31023164640325     -1.96198196078675      3.10449888366517
  H           5.87496515607907     -2.55620049859976      0.54075625190265
  H           6.60836834372306     -2.12940021035954      2.08377081193499
  H           5.60734245564408     -0.95676442479284      1.24720663036199
