24
Coordinates from ORCA-job NEB_reactant E -45.478232287460
  C           2.18584396396519     -0.23174643866515      0.27354990614095
  C           1.63244027138532     -0.14094526881998      1.49452480388130
  C           2.52896043377555     -1.40040805645123     -0.42182621223585
  H           2.38160247446009      0.67885443546621     -0.27588040924074
  C           1.29487895142635      1.23124999864311      2.06316004975764
  C           3.89708024911924     -3.42394554561490      1.72803239571722
  C           3.12628111783571     -2.62426937352541      2.44485413645912
  C           1.65723532326322     -2.42875661444508      2.20963694092453
  O           1.27424857430750     -1.06500906366605      2.38558989071623
  C           5.35828659503110     -3.62263041177037      1.95681322325967
  H           3.48034158240086     -3.96829672851311      0.89115864412310
  H           3.52339492105294     -2.06344422933550      3.28079074114930
  H           1.07500387812978     -2.95236526906194      2.97535391023406
  H           1.35842146033973     -2.79056533074268      1.22152540862251
  N           2.81456069523663     -2.30727298434888     -1.06477787324156
  F           1.98464095617740      1.47512972288533      3.18484858327841
  F           1.57176708799918      2.22982879732390      1.21667817454695
  F          -0.00226526601924      1.33448923495791      2.37135563058716
  C           6.15455082870464     -3.16976173468300      0.73270918398872
  H           5.54966910750714     -4.68447389038840      2.13244493509578
  H           5.68088060555246     -3.06623647583669      2.83850526149115
  H           5.82810928504100     -3.70860613538024     -0.15301857042577
  H           7.21583793988298     -3.35195179266025      0.88180797388452
  H           6.00502896342522     -2.10696684536761      0.55776327128558
