20
Coordinates from ORCA-job NEB_product E -46.226089705600
  C           1.99442552222923      1.21579823721746     -1.74283330178458
  C           0.83704987648733      0.64457894812969     -2.54815716217430
  F           1.58950858284183      1.29883701896988     -0.43382091299322
  H           2.86788361879549      0.55239310538338     -1.76192359939830
  C           1.24516166538160     -0.56186863490061     -3.45105296660413
  C           2.34926712511788      2.64090167769340     -2.22481242565319
  C           3.52068486497935      3.14976157285100     -1.43261942100844
  C           3.44643465013172      4.15305987091560     -0.58006106469012
  O          -0.29038030218308      1.02739823990030     -2.50939133897227
  C           2.66430198061417      2.66158769166350     -3.72345440984814
  H           1.47528127008336      3.27380772522270     -2.03707246433495
  H           4.45428652738152      2.63290511738314     -1.60959791608290
  H           2.52270098503540      4.67487735963077     -0.39507672955988
  H           4.30863479496492      4.49489999545380     -0.03522027575333
  F           0.32515426190120     -0.84693203929011     -4.36255482795186
  F           2.39918931891849     -0.32278360433251     -4.09950172348762
  F           1.44482510595741     -1.65126778460268     -2.70089536920210
  F           2.91120535317418      3.94950996099940     -4.11035497224191
  H           1.81867640323980      2.31092120273676     -4.32625097526944
  H           3.56110839494819      2.07911433897515     -3.95984814298932
