16
Coordinates from ORCA-job NEB E -31.937289689370
  C           0.27676758113775      0.43403037552522     -0.41376192592600
  C           0.35119197101142      1.75771062198866     -0.96366004928800
  C          -0.14083832481630     -0.74067062181821     -1.14485187385893
  H           0.81824907038613     -0.53337825341987     -1.71672181791928
  C           0.30740441866631      1.77891754988143     -2.42127315915549
  C           0.61689881278344      0.18572379251406      1.03392533909298
  C          -0.02798351857146     -1.03315068345965      1.60208107372188
  C          -1.30959016905786     -1.32231180442886      1.42180187980910
  O           0.40034470726167      2.77781252160676     -0.29886252066137
  F           1.98514817271063      0.13390296858663      1.22099709469387
  H           0.27863423110276      1.10497963892940      1.54590147814986
  H           0.64463975823042     -1.70773152941886      2.11080148799639
  H          -1.98670071116468     -0.64463984348022      0.92958355023774
  H          -1.73615251158936     -2.22979815951368      1.80882894471459
  N          -0.78853718742817     -1.73449203374969     -1.14921582816573
  N           0.31052369933732      1.77309546025690     -3.56557367344162
