23
Coordinates from ORCA-job NEB_reactant E -57.291741414870
  C           1.91717626186755     -0.16889163518948     -0.24402951515423
  C           1.59454020515733     -1.42895017359236      0.08186361223598
  C           1.73022710987708      0.57552481481627     -1.52944303622162
  H           2.36993585890884      0.42952651064892      0.52905303738608
  C           1.88332630610174     -1.88498845557846      1.51206517705247
  C           2.25789360315839     -2.55167225917509     -3.99049427072984
  C           2.08087077870927     -2.80437411851077     -2.70384842536892
  C           0.81657672479713     -2.48767618055089     -1.96419611464912
  O           1.02641332155854     -2.44704091499761     -0.56217230221179
  C           3.47794983046719     -2.87447616076935     -4.77128577647820
  H           1.48857802898925     -2.07013833275781     -4.57771544982044
  H           2.84963688154937     -3.28098344071194     -2.11210060957004
  H           0.11108107811812     -3.31743471228707     -2.09087012994809
  H           0.34075779292251     -1.58029064603763     -2.33920652611549
  F           2.44043370358307      0.04750797275463     -2.56174791746637
  F           0.43268493215614      0.58106773869562     -1.94817361522828
  H           2.03773928785719      1.62639292951232     -1.42897309650822
  F           0.74480843441514     -2.27468829065852      2.12338605717607
  F           2.70311925703980     -2.95889040132723      1.49820404129439
  H           2.35277869858776     -1.10548128416538      2.12950375819891
  Cl          3.04990209126897     -4.03052939906988     -6.07190198923492
  Cl          4.09904891250362     -1.38600549855129     -5.53691200953882
  Cl          4.77652090040599     -3.58640806249698     -3.80840489909951
