17
Coordinates from ORCA-job NEB_product E -30.216044704240
  C           1.71227570382845      1.06678522728610      1.21121113371939
  C           1.24791114625724      1.20401174635262     -0.22097805611791
  C           1.20536749197169     -0.25883702271581      1.78172690474045
  H           2.80939940714576      1.05104924763182      1.18990845178596
  H           1.56033673593368      2.15646351121160     -0.69072372705538
  C           1.28374918727343      2.31969672835871      2.00320908797500
  C          -0.11590753418311      2.25360770152696      2.51873652756412
  C          -1.09996195289198      2.99435507115244      2.04426175996545
  O           0.61119149340184      0.38988420568416     -0.82224279681776
  Cl          2.39454784573805      2.56598211734252      3.40203239435897
  H           1.41746052334990      3.20138738661471      1.36912365973378
  H          -0.27707169224497      1.56731435348261      3.33748878492103
  H          -0.95053621307768      3.69465490244040      1.23870319650425
  H          -2.09810274196839      2.92691148042883      2.43978109079042
  F           1.65401762399628     -0.46166071032212      3.05702765873939
  H           1.57496083071154     -1.09048254933541      1.17321335527055
  H           0.11186214475828     -0.28332339714015      1.80832057392231
