17
Coordinates from ORCA-job NEB_reactant E -30.213021980940
  C           1.73849749481876     -0.00261547657895     -0.01702427147782
  C           1.05571516038222      1.10137305730558      0.25787240413676
  C           2.11640406890915     -1.01358951380225      1.01525410694134
  H           2.05310553447868     -0.20478897879481     -1.02689608303922
  H           0.79778027520654      1.81366369764311     -0.51824318471479
  C          -0.28838419052642      3.67187654901684      3.93561772707185
  C          -0.56531338913633      2.72812868502238      3.05270591944661
  C           0.04990363056775      2.67450858960595      1.68941047714560
  O           0.61275786293999      1.38825310807586      1.51001714795663
  Cl         -1.01588484031392      3.73373436452844      5.48690318027175
  H           0.39786923048726      4.48357922380071      3.74632007460445
  H          -1.24769651080635      1.92455972273908      3.28483429791739
  H           0.82157322409950      3.44896948223011      1.58188694657827
  H          -0.72850561491010      2.84858570043577      0.92962797669641
  F           3.38841020523245     -1.48885762665252      0.78296634763254
  H           1.45532000179009     -1.88947956643446      0.98411107697159
  H           2.10804785678073     -0.57610101814085      2.01763585586067
