20
Coordinates from ORCA-job NEB E -38.234134385370
  C           0.76373912188703      0.09885221704159      0.62384127303071
  C           0.03418555483046     -2.11560573376877     -0.24761949163714
  C          -0.07299724245758      0.39017001989644      1.83360246278557
  H           0.43155000987436     -1.04901382559732      0.27426402909152
  N           0.73255418030373     -3.08495030897620      0.31028582783845
  C           0.57814730854032      1.00181383488696     -0.58188870063484
  C          -0.78213145431881      1.59481616526858     -0.86812717510622
  C          -1.66736328676374      1.00757503236882     -1.65066890928331
  O          -0.78867791444602     -2.10179916179652     -1.09942414120694
  C           1.53481774233517      2.07140699871757     -0.35206928598762
  H           0.93265955291749      0.45344428402008     -1.46562542144121
  H          -1.00173963144645      2.53426177988753     -0.38053910691259
  H          -1.46898401442686      0.06664370250293     -2.13767612709223
  H          -2.63840920029790      1.43993550339629     -1.81879240565478
  F           0.65900897332581      1.17854653600782      2.66928995279332
  F          -1.27116802551106      1.05338552578496      1.69068355465511
  H          -0.31029292793033     -0.53246625328868      2.39419080778918
  H           0.61754559158649     -4.03625069770640     -0.01453367095832
  H           1.43565021092394     -2.88880367253187      1.00374318539261
  N           2.28190545107393      2.91803805388617     -0.18293665746127
