20
Coordinates from ORCA-job NEB_reactant E -38.352561094850
  C           1.57688400253439      0.21209342669318     -0.07569814274760
  C           1.46447064502361     -0.20556859674149     -1.35504890380784
  C           1.85866072638155      1.56487903946186      0.45977724388168
  H           1.53165591591854     -0.55886933208636      0.67489459621625
  N           1.30474797465431     -1.54413797238381     -1.63404523483567
  C           1.74788744897782      4.12900864165795     -2.25542244161409
  C           1.96948409266130      2.86562410786272     -2.61148803402615
  C           0.91347391698334      1.80658876581642     -2.58777620567551
  O           1.44181523106011      0.49060046281956     -2.51289407700381
  C           2.74391007778477      5.11984686383355     -2.33613513872098
  H           0.78833067709600      4.45752744016804     -1.87756180148458
  H           2.94139919034918      2.55015614172141     -2.96451813150484
  H           0.38317947604992      1.83047909356123     -3.55130251148805
  H           0.18069441340163      1.98241576818628     -1.79595425284557
  F           2.92987145306374      2.16104555499030     -0.14171272914664
  F           0.83054351448855      2.46423731272636      0.30993315253345
  H           2.07623532781581      1.52795618737871      1.53674285427173
  H           1.42622872568774     -1.78187339707073     -2.60562483507500
  H           1.68536799973338     -2.20290754732776     -0.97664133031572
  N           3.54035919033431      5.94179803873259     -2.40832407661105
