20
Coordinates from ORCA-job NEB_product E -38.380789388520
  C           1.38901445530743      0.95386592192066     -1.30468269607616
  C           1.94150126208401     -0.22523842443551     -2.12611965360951
  C           1.90945675037419      0.94237800565244      0.13062836078354
  H           0.30342453329795      0.82125123046728     -1.23989607167330
  N           3.26331119571982     -0.44589496728625     -1.99079711149175
  C           1.65035825482827      2.28110405898009     -2.06778632540547
  C           1.12536386062329      3.47994900654655     -1.31587028006079
  C           0.02322696632389      4.11616206024721     -1.66022961766481
  O           1.21996404659721     -0.89608059331451     -2.82396215683655
  C           3.05775765060573      2.47206897630919     -2.33973029572920
  H           1.13647001017749      2.19847451173761     -3.03445654326845
  H           1.70937984938470      3.79028901847055     -0.46147060726546
  H          -0.56792136568005      3.81905173734728     -2.51166242422417
  H          -0.33541262141826      4.96137701009095     -1.09976056481091
  F           3.15647156775104      1.46387929756822      0.24176075491319
  F           1.12106841134670      1.68809998832882      0.94022957529832
  H           1.93891332815043     -0.07692888260263      0.54812525500956
  H           3.67762126918936     -1.15845167993058     -2.57096556246941
  H           3.88378669461503      0.19965508646071     -1.53158598209558
  N           4.16574388072177      2.64108863744190     -2.56396805332309
