23
Coordinates from ORCA-job NEB E -53.056996382050
  C           0.59925299630418      0.82525849689486      0.09775148963548
  C          -0.46813066821383      0.91994884929960      1.00875346888124
  C           0.48300300996886      1.58251935513831     -1.20146366430318
  H           1.59471522293050      0.86653480629677      0.53006636882066
  C          -0.23663227264987      0.76507287337605      2.49240219838206
  C           0.36225107517661     -1.01647946809498     -0.40944839107177
  C          -0.96304086411385     -1.07263235768089     -0.84186518841037
  C          -1.98316628017744     -0.73556302889526      0.10999655906448
  O          -1.68790339715462      0.73737991052499      0.57274361342479
  C           1.43764978859945     -1.37843064420566     -1.40496778406769
  H           0.60587685147836     -1.44220405313546      0.55959137484505
  H          -1.17446106664421     -0.95656829910586     -1.89460334243172
  H          -1.95045552664243     -1.29074041208271      1.04551748376360
  H          -2.98963378561596     -0.66936574156434     -0.28849367811899
  H          -0.51978300724967      1.50325342794470     -1.61112247888427
  H           1.20732401676790      1.24576832463448     -1.93553743811090
  H           0.68746727169411      2.63236083698622     -0.99451062613618
  Cl          0.15018816040888     -0.94756713944735      2.95677132590566
  Cl          1.12326018937542      1.76690127412497      3.02600449738763
  Cl         -1.69220886579165      1.23432512167891      3.38322608308234
  F           2.62428172440499     -0.82096521196070     -1.12251907485756
  F           1.64203542658452     -2.70734911594521     -1.40971398567798
  F           1.14811000055974     -1.04145780478143     -2.66857881112241
