23
Coordinates from ORCA-job NEB_product E -53.094093337820
  C           2.49463201126081     -1.61554520238814     -0.32930301817460
  C           1.44937593332705     -1.22567002159109      0.69496327443678
  C           2.52403811218569     -0.53347145023108     -1.41162884669820
  H           3.47610708958604     -1.69288685568814      0.14447767660866
  C           1.95768354731123     -1.17178336217095      2.15033206974384
  C           2.09647621787761     -3.02268893856403     -0.85512122601817
  C           0.83991486654538     -3.01411259695652     -1.67872499007380
  C          -0.30397083388223     -3.51657342452173     -1.25636285020872
  O           0.31307597905357     -0.96581367149848      0.43751646710575
  C           3.23458995210881     -3.64548812404814     -1.66168406364393
  H           1.96381247425706     -3.68342415241752      0.00987562760713
  H           0.92580927367666     -2.56653259804292     -2.65795045988631
  H          -0.40531642479450     -3.96962361190936     -0.28424487276735
  H          -1.18911184996555     -3.48720653158899     -1.86614362724199
  H           1.52476777840012     -0.36612254585817     -1.80380069623247
  H           3.18839976814953     -0.81258183075898     -2.22318739423243
  H           2.88481655108125      0.39631712616938     -0.97829804739972
  Cl          2.67145760000866     -2.74161179386667      2.58648676363565
  Cl          3.20780200308381      0.09112077678381      2.23572570705226
  Cl          0.64741349145793     -0.78720245191896      3.26780470608989
  F           4.40832980399940     -3.59647957427160     -1.01252111856793
  F           2.99164824409817     -4.94076517956710     -1.90765861901020
  F           3.43864841117350     -3.06865398509459     -2.85285246212413
