21
Coordinates from ORCA-job NEB E -32.439978838350
  C          -0.18132221104266      0.47964650854791     -0.55704771860161
  C           0.19343982528842      0.49501601106233      0.81309904767056
  O           0.77176289035633      0.06151521982981     -1.49960767884778
  H          -0.71027994262961      1.37769118846685     -0.89454357613592
  C          -0.54107077361463      1.37360854118612      1.78187830678743
  C          -1.28817635748998     -0.92814473387906     -0.67194802897988
  C          -0.96689923554441     -1.89148280208990      0.31210429073847
  C           0.45132782208045     -1.92355164855110      0.61117991151608
  O           0.71728152863748     -0.60099317150428      1.31290292690914
  I          -3.33173859373132     -0.26012425861991     -0.68837680575170
  H          -1.00863803284039     -1.16482955048099     -1.69288366669374
  H          -1.62535930407145     -2.00005976956061      1.16468375802786
  H           1.09335403845831     -1.95031986806520     -0.27020876133634
  H           0.75602787039393     -2.65490124494320      1.35432374907508
  C           1.76750616396446      1.02939230071075     -1.73690542493324
  H           2.41375620400015      0.61595142836989     -2.50848037008048
  H           2.35226958363603      1.23084321050217     -0.83270858636589
  H           1.32622080205955      1.96833683627810     -2.09161075831389
  H           0.02444705637444      1.44802567011109      2.70709272616684
  H          -1.51224556856392      0.93001457083511      2.01914038278928
  H          -0.70166376572119      2.36436556179415      1.36791627635974
