21
Coordinates from ORCA-job NEB_reactant E -32.472082712360
  C           1.41613827035286      0.24981300175694     -0.11341932868312
  C           1.16410650869706     -0.87725624960529      0.55434959607195
  O           1.21877702323908      0.38048850401530     -1.45861007627718
  H           1.79570820431067      1.12028777162568      0.40815147068479
  C           1.31480933908972     -0.97303357917858      2.04543971394921
  C          -0.77665773530613     -5.06568778414848     -0.43586411884472
  C          -0.65927261660521     -3.77239276098626     -0.65730120725974
  C          -0.23687209794170     -2.79624448513532      0.39673293855281
  O           0.80081306167689     -2.00735037228427     -0.14786204943997
  I          -1.39797572270203     -6.43208570779684     -1.90637079139760
  H          -0.58728604172765     -5.52924811976886      0.51772939628627
  H          -0.84115651277047     -3.33761142719784     -1.62869172565671
  H           0.09411042890474     -3.32508605935055      1.30217545216302
  H          -1.09980793314593     -2.16212576809857      0.65667740413285
  C           1.89921182533020      1.45334545985435     -2.05842376301870
  H           1.56436067564103      1.49061398869033     -3.09347615413522
  H           2.98435310216659      1.30208480464661     -2.03489332628377
  H           1.66231542632343      2.40358949397854     -1.56518763070902
  H           1.91867740035235     -1.84188193313312      2.30469344257356
  H           0.34668581470418     -1.07075032183962      2.53789459545216
  H           1.80266157941030     -0.08086845604415      2.42465616183913
