21
Coordinates from ORCA-job NEB_product E -32.489835696000
  C           0.62029227977466     -1.14084437649910     -0.64061704219155
  C           1.57162664064005     -1.06556344345369      0.56956879403382
  O           1.29447202525781     -0.95565811036786     -1.85751603431185
  H          -0.18522119916946     -0.39434056489407     -0.52747894563717
  C           1.00144555127884     -0.37626864483075      1.77862939922738
  C           0.04213163178799     -2.55237786045638     -0.66636354932333
  C          -0.83059853659358     -2.86566279939675      0.49064245423987
  C          -0.65181689985443     -3.91015911156951      1.27983534739436
  O           2.67654029446896     -1.53474056812551      0.52756410080087
  I          -1.12036218630635     -2.75843507020107     -2.49916339251008
  H           0.85932422647102     -3.26503478984867     -0.77030577275172
  H          -1.66183904007110     -2.18840770711089      0.64514762727802
  H           0.16069429003500     -4.60134288478310      1.12860401156379
  H          -1.30885463152876     -4.11420302483394      2.10733812776520
  C           1.79518915039134      0.34173340382545     -2.05668453473291
  H           2.20779618973360      0.35225162891905     -3.06293005973575
  H           2.58433500299979      0.58456504526014     -1.33696629762577
  H           0.99557549647229      1.08971404403326     -1.98147676510544
  H           1.70319021515800     -0.43682373965969      2.60617214871233
  H           0.05941108121060     -0.84354933631383      2.05839348142183
  H           0.80656841784376      0.66904791030691      1.54440690148811
