17
Coordinates from ORCA-job NEB_reactant E -33.754707556030
  C           1.87589876731308     -0.55851827171538      0.02708933540415
  C           1.47764766740338     -0.44186458641215      1.30817084396364
  N           1.53571929497352     -1.53244732258308     -0.94072006724989
  H           2.57842171136640      0.16621569542802     -0.35471574687362
  H           1.81113548586472      0.44928281392675      1.83379638972994
  C           1.72877729240951     -4.35972081352039      0.71876129670545
  C           1.64103130739941     -3.40993268105074      1.64734481676839
  C           0.43388118782092     -2.54422592137055      1.83471948805934
  O           0.78828992185978     -1.19765364075069      2.14000973595804
  C           2.86525623693789     -5.18392238796332      0.59594744394290
  H           0.93030630941285     -4.54445330189439      0.01150956945057
  H           2.45986546603953     -3.22700888093271      2.33197383722083
  H          -0.12368298928586     -2.87428250072076      2.71862214264758
  H          -0.21627210542942     -2.59144261043790      0.95362993699229
  O           2.36279131503105     -1.76325742681878     -1.79919057905801
  O           0.43064431713407     -2.05081520707013     -0.90014752241161
  N           3.78148881374917     -5.86625295611379      0.50569907875002
