28
Coordinates from ORCA-job P E -43.270249562630
  C          -0.98736413823215      0.49660544736089     -2.32620990357915
  C          -0.71882879672020     -1.67454094934454     -0.27304257708962
  C          -1.31737353423924     -1.87717125690505     -1.63275187839547
  C          -1.43431203399686     -0.92176953046472     -2.53844321721411
  C          -0.77500250701868      0.78410136174653     -0.83264123028174
  C           0.01262112208000     -0.34519261562978     -0.16722138750324
  H          -1.65774344861502     -2.87988903246755     -1.84485493905318
  H          -1.85829240511973     -1.13366099030539     -3.50925213631526
  C          -1.98669281645127      1.47933631766149     -2.88781929101659
  H          -1.50984420253993     -1.70661227579688      0.48225398786758
  H          -0.03560440838374      0.63821011649156     -2.85635817461317
  H          -0.03063747951813     -2.49608746210636     -0.05920040748461
  H          -1.74410808688488      0.86752845784104     -0.33802786674221
  H           0.21149342649963     -0.08475446429540      0.87882121310725
  H          -0.24338748144780      1.72929292137614     -0.70958593494018
  N           1.35111764208352     -0.41410560645892     -0.81593564812412
  C          -3.34623355905130      1.29383647671254     -2.66919073386504
  C          -4.26676914551368      2.20219309359855     -3.15914261646893
  C          -3.83789463112943      3.31026314063177     -3.87024397947519
  C          -2.48509949297378      3.50417406937303     -4.08897092519002
  C          -1.56502398542985      2.59326525318171     -3.59988891956230
  H          -3.68226661261824      0.42704656000244     -2.11740643824939
  H          -5.32147577363536      2.04515399966773     -2.98623898786155
  H          -4.55633986142162      4.01962240963261     -4.25348132577999
  H          -2.14451509537700      4.36634835169610     -4.64324954747026
  H          -0.50970882749921      2.74824355788645     -3.77459718155951
  O           1.70104176412367     -1.45153208546286     -1.31849970290921
  O           2.01001436903026      0.59874473437686     -0.78154025023080
