28
Coordinates from ORCA-job R E -43.176898723000
  C          -1.55224304026231      0.09014625577485     -2.59184694076251
  C          -0.04865801379281     -2.34671125982629     -1.64444056425462
  C          -1.31864846874009     -2.05118253081582     -1.37005883605427
  C          -2.07368346940434     -0.94041741193699     -1.90500831442280
  C          -0.81602362749614      1.07411852806483      0.11186117990195
  C           0.11900961327837      0.19463590426655      0.43650380609050
  H          -1.86528141471314     -2.68986679723677     -0.68671738003607
  H          -3.13404695273181     -0.96154498660963     -1.69180625171961
  C          -2.27239600867529      1.23698817471134     -3.11122684037736
  H           0.44297115343581     -3.19012646107442     -1.19166988775454
  H          -0.48569278811842      0.11557630071830     -2.77237012028094
  H           0.53998170974828     -1.77634614667960     -2.34232767412370
  H          -1.74774656139145      1.13338112610906      0.64418336153055
  H           0.05763497906487     -0.52374423281784      1.23857168466781
  H          -0.65360010394706      1.77541921673863     -0.69007618400421
  N           1.35441127000690      0.12859907578299     -0.28620097061058
  C          -3.66629769926655      1.30734284527633     -3.17260384337033
  C          -4.29412539925897      2.43256905116902     -3.66953378618310
  C          -3.54873228578223      3.51337205477360     -4.11320332709364
  C          -2.16506773233519      3.45858353229591     -4.06229564161615
  C          -1.53446607279493      2.33283958663744     -3.57103488275878
  H          -4.26298534733802      0.47013075065528     -2.84373820472416
  H          -5.37308579966221      2.46839125478999     -3.71437827988116
  H          -4.04418915156999      4.39124353902590     -4.50053962569826
  H          -1.57776333625082      4.29595622330303     -4.40980288934227
  H          -0.45483037621683      2.29288252934192     -3.53177653555118
  O           2.21439559617355     -0.59688701736572      0.16668048412283
  O           1.46807932804086      0.79239089492808     -1.29537353569338
