28
Coordinates from ORCA-job TS E -43.171702176810
  C          -0.01012544507969     -0.48840608569126     -0.43501185991528
  C           1.50479013628595     -2.72829892823422      0.64076490870215
  C           0.16563620488336     -2.75326940182913      0.47402308226632
  C          -0.57577283304811     -1.69155134824614     -0.09605955235079
  C           0.50179209259028      0.16586261956566      1.57558538531066
  C           1.37614014181509     -0.70290182159942      2.15370436608955
  H          -0.40225826256883     -3.56366188196103      0.91183451176256
  H          -1.65123507958396     -1.79744007093420     -0.11165324660127
  C          -0.76116880694795      0.64612200940886     -0.96689336633460
  H           2.01119196701819     -3.50148153078883      1.19354929011218
  H           1.04806892397830     -0.46035906048509     -0.65910988677695
  H           2.13806357006178     -2.06623472959878      0.07789899438442
  H          -0.51594921161756      0.20896240762580      1.91934183905215
  H           1.11607675948629     -1.43204559333643      2.90180756255731
  H           0.89942947737827      1.05088808609428      1.10620132930142
  N           2.76338796165202     -0.55792247871364      1.93633298807149
  C          -2.11997033071256      0.83728785513000     -0.71413632480784
  C          -2.78689599591834      1.92808921981530     -1.23780967564624
  C          -2.11120117495549      2.85234154552447     -2.01795095646618
  C          -0.75851683561247      2.68353453977472     -2.26475710991084
  C          -0.08895920723292      1.59577101176050     -1.73881786898734
  H          -2.65897697596502      0.13570089566190     -0.09500879340778
  H          -3.83929807889477      2.06129111405266     -1.03401466614076
  H          -2.63538683417402      3.70383839716260     -2.42522170588169
  H          -0.22436004953470      3.40451815882851     -2.86557537682045
  H           0.96755469474957      1.47093969653393     -1.92840223175898
  O           3.51598380608037     -1.16943251870047      2.67305154990454
  O           3.13195938586693      0.16785789317943      1.02632681429226
