20
Coordinates from ORCA-job NEB E -44.117667942600
  C           0.19579631824269      0.95309510231374     -0.29866522964300
  C           1.19346902674930      0.08359193703298     -0.18707323441741
  C          -0.16711147304868      1.96422271733373     -1.31404885348572
  H          -0.52821129255040      0.91418213480479      0.51019956383004
  C           2.38528638960336     -0.20817654794118     -1.06659944280264
  C          -2.01593127676327     -1.21556046410702      1.09398880890244
  C          -1.99743209739065     -0.42815499160821      2.15201691216788
  C           0.59120502447392     -1.91798499407017      0.89952896237069
  O           1.10770276465599     -0.76474079977793      0.95734290009968
  H          -1.92006468212064     -0.84595596502203      0.08401397995892
  H          -2.16485486129173     -2.27487460927671      1.18309030260412
  H          -1.85936998399014      0.64394030033099      2.10379247410220
  H          -2.08046492156347     -0.83187273563939      3.14497748663605
  H           0.29322263706627     -2.24492874994843     -0.11987167802650
  Br         -0.22344230854766      3.72053492170961     -0.41617974838717
  Br          0.95537093506236      2.12420142344153     -2.88662603938014
  Br         -1.99804890414522      1.52620896987331     -1.95041684967352
  F           3.38770780050789     -0.70876830274589     -0.31442223503513
  F           2.07564421338377     -1.16324147294941     -1.97895211877766
  H           2.76952669166632      0.67428212624566     -1.59609596104312
