22
Coordinates from ORCA-job NEB E -33.201943176820
  C          -0.29449680034447      0.95170857963861     -0.51574779148151
  C           0.21712666653471      0.81253933547702      0.78466142665155
  O           0.42892579193798      1.08120392261368     -1.67257203656291
  H          -1.20652410334984      1.53512405876812     -0.61953629254845
  C          -0.72180363704790      1.19212072214637      1.90683856267720
  C          -1.02561615130311     -0.97642169031452     -0.70704932807358
  C          -0.61040107682665     -1.70056698580304      0.41255026132132
  C           0.74179169422741     -1.73098868307920      0.73542608682835
  O           1.18174546002572      0.01502684910568      1.04477140787004
  O          -2.37133851598102     -0.81629602117412     -0.88408413269921
  H          -0.44133352880782     -1.07437494882514     -1.61806237106836
  H          -1.34221106688471     -1.83111576030047      1.19787822256558
  H           1.46444089111343     -1.84189972413190     -0.06025945358208
  H           1.04105469331850     -2.17932046477917      1.66975576377939
  C           1.81703352394787      0.83299431227357     -1.62101979884517
  H           2.20608477129942      1.14577877291855     -2.58924186667670
  H           2.03594065052920     -0.22592589079035     -1.46371093516931
  H           2.28999558008533      1.41127885428340     -0.82394102447856
  H          -0.18033181088998      1.16433997199236      2.84834283384463
  H          -1.53251686531230      0.46223936288626      1.95582749576029
  H          -1.14776624630179      2.17973949115759      1.75657886600452
  H          -2.54979991996995     -0.40718406406332     -1.73740589611702
