22
Coordinates from ORCA-job NEB_product E -33.240427994060
  C           0.63669968977292     -1.10653738012927     -0.86484047737841
  C           1.36003287331221     -1.15183243923737      0.48847968678123
  O           1.53814742266159     -1.03217664557620     -1.94292772140303
  H          -0.06185639324865     -0.25517344115054     -0.88955429133669
  C           0.66691268963913     -0.40394526925703      1.59749581172035
  C          -0.18536468773475     -2.40356112454257     -1.06685576674911
  C          -0.60003343584701     -3.03164352849439      0.23757340021252
  C           0.04286854703924     -4.02707081415906      0.81716194243715
  O           2.41400780635899     -1.71233487778010      0.63062542881628
  O          -1.31231708573851     -2.04824116285824     -1.84152087957661
  H           0.47314632557085     -3.08711811917755     -1.62024174432554
  H          -1.50180525629049     -2.61619173198445      0.66874925109149
  H           0.93804633883627     -4.44440931828015      0.38775505395442
  H          -0.28466601078895     -4.44789148124141      1.75229450627111
  C           2.21846027552646      0.19467974207493     -2.03170522190053
  H           2.82645877617742      0.13913935127111     -2.93205415980319
  H           2.86926828826251      0.36149508130623     -1.16605528016477
  H           1.51381870493544      1.03196303146998     -2.11783973183779
  H           1.05951043433626     -0.71608658348176      2.56144863107164
  H          -0.40741868719430     -0.55481830573996      1.55771861804389
  H           0.86589698647133      0.65948859658580      1.46634875578778
  H          -1.76151360205797     -2.85183357961798     -2.12415581171219
