19
Coordinates from ORCA-job NEB_product E -37.125666738380
  C           3.11903324300496      1.74857777195813      0.94113318137703
  C           1.70742829099088      1.39130782434271      0.61770927056784
  I           4.44235334529331      0.23556907955203      0.18981837700462
  H           3.40108514190825      2.67477337554631      0.43691625906688
  C           0.70066180458374      2.56560114319426      0.74814324963967
  C           3.32722234223334      1.93330625639654      2.46730816764076
  C           2.87594705842509      0.71204705626595      3.21588622737525
  C           1.83948478218792      0.68278017703752      4.03025895849727
  O           1.30965889718637      0.30875990951160      0.30001647908838
  N           4.74532015686121      2.12870086225448      2.67950170043731
  H           2.71328126987516      2.79987983367542      2.77289552311920
  H           3.48593533558180     -0.16434795320484      3.04797688529918
  H           1.22488103020741      1.54997731810204      4.20972918574658
  H           1.55651611215232     -0.21836256462083      4.54562454798720
  F           0.28637751083922      2.67893893667997      2.03097721545871
  F           1.27160759641992      3.74978275251005      0.42777044401829
  H          -0.18152014712406      2.41062147472024      0.11043996268489
  H           4.99960986202138      1.98287026860825      3.64777960247733
  H           5.05321636735179      3.04841647747016      2.38751476251361
