19
Coordinates from ORCA-job NEB_reactant E -37.127605362030
  C           2.44164916057079      0.79945429440184      0.28126743740381
  C           1.53166649138806      1.42944089382866      1.02299322819086
  I           3.80729735879191     -0.71314128694302      0.77782966988841
  H           2.53213305379776      1.06197235032633     -0.75756321224473
  C           0.71423464986072      2.51097138604587      0.32130293970780
  C           3.63291628170646      2.31526351868805      3.31804267817096
  C           3.21964989771844      1.07040935898968      3.55190061444288
  C           1.82817165523030      0.58762432770333      3.26810124202775
  O           1.14068334045522      1.36754512736278      2.30033417750999
  N           4.86972070011884      2.81046535717247      3.66140834639690
  H           2.96685704275660      3.04834589543429      2.88264870792984
  H           3.87690187653341      0.34296967470439      4.00369457025992
  H           1.19365285726859      0.68055498704748      4.15816874660276
  H           1.83644026306550     -0.46785486577094      2.97295997260742
  F          -0.59745700741312      2.39094348073330      0.60477731179427
  F           1.09524140134893      3.73453187743158      0.76576399328592
  H           0.82972718420193      2.50282037747862     -0.77260903633866
  H           5.56539756779129      2.11796694284568      3.89311181497613
  H           5.21711622480834      3.57571630251959      3.10736679738778
