22
Coordinates from ORCA-job P E -45.678603411550
  C          -1.36927932629459      0.34780793659657     -2.31698782646566
  C          -0.20448090698038     -1.74939856054814     -0.96705567823130
  C          -1.59615030438729     -1.91292547398024     -1.48984628715680
  C          -2.15753953413201     -0.92074785389453     -2.15933510319356
  C          -0.82753533180470      0.74413949890025     -0.93362074937444
  C          -0.02197305702451     -0.38720509146750     -0.26593989346762
  H          -2.09876375648269     -2.85117752447273     -1.32682469502010
  H          -3.15243759554695     -0.98499874870905     -2.56826185105085
  C          -2.19493075112933      1.45519793963419     -2.94408116296681
  H           0.04122593920267     -2.55679511514673     -0.27778409292485
  H          -0.51897504682392      0.16599055918143     -2.99105726402932
  H           0.48682279310744     -1.81341475789552     -1.81577042445339
  H          -1.67497015234968      0.99549262020672     -0.29200468267599
  H          -0.37367802649860     -0.49610964527051      0.76714025601788
  H          -0.21311168759569      1.64256008365802     -1.02701289874825
  C           1.45453090367910     -0.02053991643193     -0.17109592667782
  Br         -3.78087939505310      1.86965757607258     -1.87763083061873
  Br         -1.15335707118241      3.10046701558492     -3.15774249008304
  Br         -2.79540165585305      0.91152805788607     -4.73001083181996
  Br          1.70366767097806      1.58289134462583      0.93913845081587
  Br          2.49508301704160     -1.45416026886547      0.66038203351006
  Br          2.23180327513003      0.34181032433576     -1.92925805138531
