22
Coordinates from ORCA-job TS E -45.569647684390
  C          -0.77540153251461      0.32957704594992     -1.15171821803806
  C           0.47568327689724     -1.96234938402828      0.05211885549021
  C          -0.86174997031259     -1.88102819418468     -0.14612806366257
  C          -1.47851001448598     -0.77918572623484     -0.77204174483780
  C          -0.09059057448574      0.92690741949819      0.90728273928519
  C           0.73152339388014     -0.02516362179588      1.42540787671206
  H          -1.51337988236022     -2.60060834220064      0.32820968482268
  H          -2.55999378527473     -0.74060148826754     -0.76399674022207
  C          -1.46053235743029      1.49761109024615     -1.75734016566308
  H           0.88329856231571     -2.77174022329785      0.63435973209813
  H           0.26744308585884      0.25450516707642     -1.42430655423213
  H           1.17467688553154     -1.44056444436109     -0.57640990635578
  H          -1.10823727993413      0.98769433232156      1.24905621082070
  H           0.37633563130117     -0.71690939689351      2.17390551001550
  H           0.32640085232374      1.81618182094141      0.46349692836060
  C           2.20545114040081      0.14485126757352      1.38495918185758
  Br         -3.03751628787863      2.05687588752539     -0.74940721160749
  Br         -0.27289389759449      3.04010706092351     -1.93003045362972
  Br         -2.06945689100787      1.02794709822710     -3.60068791479268
  Br          2.73416151301308      1.54984035982893      2.72003296349716
  Br          3.18111675779072     -1.46719940859878      1.88249598746124
  Br          2.87217137396628      0.75325167975100     -0.34925869737965
