23
Coordinates from ORCA-job NEB_reactant E -49.413710821820
  C           1.50839020324669      0.03616446559271     -0.19743362642259
  C           1.51266125899021     -1.02858086736687     -1.01415872079048
  C           1.96528935031761      1.44132871287297     -0.40546838966800
  H           1.11032094366522     -0.12835500162629      0.79008474931286
  C           0.98480226716194     -2.34945220401050     -0.52691692474061
  C           2.86818745160415      0.05528486603687     -5.49717912754863
  C           2.81876844520382     -0.66661758936773     -4.38967723255487
  C           2.47209554715336     -0.11552551425321     -3.04659671630196
  O           1.92580226781025     -1.17715011870518     -2.28299519410531
  C           3.25393188998744     -0.51787914326117     -6.82239855181821
  H           2.64608640648756      1.11115388585572     -5.52732440260444
  H           3.04333028709355     -1.72447753297646     -4.40416798621122
  H           1.76047355498718      0.71012715891232     -3.14180990817491
  H           3.39227461610639      0.25730240306832     -2.57710753482716
  F           3.29056493392404      1.54115965771721     -0.72852148279225
  F           1.30802285608456      2.08543613309920     -1.41724057634427
  H           1.81640256467223      2.04604830708778      0.50028963692367
  H           1.77843180992287     -3.09234645986851     -0.57045102028837
  H           0.18550701672391     -2.68196744086052     -1.18553340550762
  H           0.61207146534605     -2.27936393348418      0.48822169453355
  F           3.52979749771400     -1.82797927481192     -6.78048022501455
  F           2.28146941116122     -0.36172250641829     -7.73920934656144
  F           4.34361795463575      0.08501199676772     -7.33302570849320
