20
Coordinates from ORCA-job NEB_product E -54.164175514290
  C           2.25611038820416      1.57855988609795      1.47000330004287
  C           0.85997096518497      2.12405106217963      1.20366977793413
  C           2.21315455297996      0.08061251598635      1.13361935292562
  H           2.98110717423312      2.04340463080543      0.79385019795097
  F           0.83643412393432      2.85461090670511      0.07061545162448
  C           2.64874884777973      1.79866080672810      2.94883328274970
  C           3.79180158062843      0.91578495285780      3.37739878949343
  C           3.68342366955075      0.01608741233380      4.33543069092824
  O          -0.12394011968117      1.91920093365702      1.81483962355908
  C           3.02194206806636      3.26891248190965      3.17579641094046
  H           1.77108009254184      1.57916369999347      3.56919265628876
  H           4.72167963613695      1.06580930670817      2.84941153808433
  H           2.75939760923372     -0.14762667022003      4.86434877001296
  H           4.51770915743555     -0.59937182257516      4.62095587476536
  F           3.43616327386285     -0.44705475716541      1.02707689534898
  F           1.55454122195707     -0.63372002995429      2.04584261705024
  F           1.60988567261921     -0.13191082339313     -0.04186904802533
  Cl          3.37347630195195      3.52487391492640      4.89556384504639
  Cl          4.45512367827959      3.72980098885382      2.22759676096188
  Cl          1.67869010510062      4.34595060356533      2.70072321231745
