20
Coordinates from ORCA-job NEB_reactant E -54.148904889070
  C           2.04009112167958     -0.15763396122670      0.06273515423660
  C           2.86341448847606      0.34697901964276      0.98280318272544
  C           0.80618171091611     -0.89203986338066      0.45670324337449
  H           2.24726237814970     -0.05846700660796     -0.98622266454667
  F           3.96001695636390      1.00836251047081      0.58554110187038
  C           2.95605790544758      3.07691895113467      4.30361896234272
  C           3.23163858261081      2.41187057137036      3.19343708097056
  C           3.55829408314741      0.94928829018913      3.17170327934169
  O           2.70180470429182      0.23058381472710      2.28462798172303
  C           2.65055261513472      4.52894386756092      4.38760333988209
  H           2.95159101678056      2.58390855859029      5.26598815832252
  H           3.23120423373020      2.90841528330715      2.23310721198693
  H           3.38883065465856      0.48930023051380      4.14609511372905
  H           4.60657460430608      0.81029344117966      2.87710185825905
  F           0.09202880679975     -1.25786345262998     -0.61379338282145
  F           1.06037230990506     -2.01862741025625      1.14832440468095
  F          -0.01450217266763     -0.16303133558415      1.23423179504329
  Cl          1.06504552370579      4.74687182950010      5.18504553676025
  Cl          3.89824556578399      5.32417281238632      5.39609744186904
  Cl          2.60299491077996      5.34325384911264      2.81975120025003
