17
Coordinates from ORCA-job NEB E -36.843675902670
  C           0.78596284110982      1.06838516759768     -0.57058449281399
  C           0.75613187826600      1.24614864890267      0.82039594666286
  O           1.89379696189734      0.55502680938289     -1.14738372096561
  H           0.21077851619478      1.77194044091431     -1.16743642483741
  Br         -0.71612081684086      2.44657676388667      1.36167262440807
  C          -0.41671197885728     -0.66827906883257     -0.52136769496144
  C          -0.73014025712139     -0.96084196490102      0.80038512050286
  C           0.32597465464521     -1.16253270654029      1.68914671408533
  O           1.16447520548857      0.45350680568104      1.67831845006527
  N          -1.45614866764302     -0.29483928394636     -1.44663256789276
  H           0.40206235642792     -1.18675198366192     -1.00576326550747
  H          -1.70117027301798     -0.65393550859532      1.16818014733735
  H           1.20738663689987     -1.68361389663269      1.34240864146525
  H           0.11372815796632     -1.27166004848788      2.74165426150477
  H           1.83794218913232      0.61557740150716     -2.10993230532668
  O          -2.55763992757746     -0.05215770151866     -1.01980621502214
  O          -1.12030747697018     -0.22254987475572     -2.61325521870426
