17
Coordinates from ORCA-job NEB_reactant E -36.878915582990
  C           1.14272139261761     -0.21255937195953     -0.24481160329875
  C           0.99110646960045     -1.08677697498256      0.74770395329872
  O           1.92606104663062     -0.48841149776409     -1.31707412899048
  H           0.64184929853340      0.74417350382151     -0.19821806020567
  Br         -0.21989570309368     -0.62950087653634      2.17406104731213
  C          -1.04553360409385     -4.05776713558425     -0.77088332385522
  C           0.15411604527432     -3.53637357235869     -0.54969704224053
  C           0.80191231166992     -3.41690847831368      0.78930250624832
  O           1.62670487265967     -2.26671898432452      0.87419555602265
  N          -1.58859506375900     -4.12939554316934     -2.09778173163632
  H          -1.69716795416987     -4.46997098356549     -0.01546843539149
  H           0.72448022686479     -3.14180601104840     -1.38382882187084
  H           1.48081660060973     -4.26129887874415      0.94882520632868
  H           0.05145941953532     -3.40926729761239      1.59256872127965
  H           1.97949568890455      0.27243991771559     -1.90392306249408
  O          -0.94770161285232     -3.65126446186084     -3.00771187936528
  O          -2.66772943493164     -4.66729335371282     -2.21095890114151
