18
Coordinates from ORCA-job NEB E -30.656290397980
  C           1.06421497607198     -0.56627431409425      0.29341073846534
  C          -0.11815018291987     -1.00360822208346     -0.33018317336949
  C           1.23068950164556     -0.77869497590909      1.69024504151535
  H           1.98909634820709     -0.69551161520235     -0.26308782939182
  C          -0.13352500844741     -1.25425695537226     -1.82268848858787
  C           0.71064846274936      1.33914927133039      0.31915113531606
  C          -0.50752377529530      1.40552592106764      0.98755442218600
  C          -1.63590647107950      0.78690153813146      0.38053589873961
  O          -1.26710666314830     -0.79895432900465      0.23925209289671
  H           1.58584229593942      1.73383912183680      0.81710712023141
  H           0.72232915445708      1.48636562654578     -0.75380945360589
  H          -0.50003629898657      1.49655476884564      2.06374125204864
  H          -1.82191690217477      1.03253776252580     -0.66311552229475
  H          -2.54603503435344      0.74922243794240      0.96568033803399
  N           1.39187554616154     -0.95600883164911      2.80889316361506
  F           1.12780002474190     -1.40470866193668     -2.33116866676647
  H          -0.59616754609240     -0.40629485505879     -2.34994870487871
  H          -0.69612842747637     -2.16578368791526     -2.05156936415317
