18
Coordinates from ORCA-job NEB_reactant E -30.690573968120
  C           1.36994510762976      0.13905205237446     -0.04488707393072
  C           1.22974341746944      0.83279585333023     -1.18733189773190
  C           1.27515642195645      0.60520361211575      1.27254360771406
  H           1.58555874962133     -0.91815068683910     -0.12059721127633
  C           1.37547852205349      0.15524827484866     -2.53057511836824
  C           2.51830315300541      4.73905970453056      0.34193617979199
  C           2.16390917103201      3.47488372848568      0.21837355852622
  C           0.82621281927522      3.03418751075984     -0.29761739042063
  O           0.94027799020172      2.12820868529524     -1.39127369462100
  H           3.48111115572022      5.02051311195168      0.73094258995728
  H           1.85436161713454      5.54429769048142      0.07384540788668
  H           2.84061876728259      2.67880466085579      0.49512657571370
  H           0.27469213786315      3.88544960169932     -0.70450064177664
  H           0.23949243444800      2.57877741220553      0.50892348063523
  N           1.22276491733424      0.92021519030342      2.37662036590095
  F           1.61549606435748     -1.18252125896023     -2.41147546109285
  H           2.21474001402925      0.59364575968807     -3.08299900505029
  H           0.45543753958569      0.27632909687368     -3.11365427185751
