18
Coordinates from ORCA-job NEB_product E -30.694879155900
  C           2.77172862604663      1.69168391303801     -0.65574056643018
  C           1.87169284365575      1.39641533789770     -1.86049425100656
  C           2.87896296411348      0.58778386303383      0.26217799241722
  H           3.77173449667141      1.92251230700644     -1.04305017290055
  C           0.77919737984429      0.38531177588215     -1.58265748739995
  C           2.23045914459027      2.95768612739967      0.06502420765330
  C           0.91867723378571      2.71425282717321      0.74312413439192
  C          -0.20417539243401      3.32878288386437      0.42029073418213
  O           2.02115282343436      1.95947023192114     -2.90559140119895
  H           2.96973277620575      3.25892058364837      0.81235703378544
  H           2.13576722198461      3.75511392020320     -0.67423961192043
  H           0.94212762089034      1.98638874533478      1.54481977647203
  H          -0.24413534454527      4.05617504226930     -0.37412375060983
  H          -1.12768929343306      3.13732577861583      0.93881620308562
  N           2.97887410800078     -0.27907346051852      1.00101075255751
  F          -0.06445808919738      0.25733207500662     -2.64551128461755
  H           0.18400697630135      0.70293664164413     -0.71698719600550
  H           1.22034390408497     -0.59981859342024     -1.38512511245566
