21
Coordinates from ORCA-job NEB_reactant E -41.312867910240
  C           1.90437611142712      0.00704002522445      0.08689850858788
  C           1.14227105772446     -0.20996088146923      1.15592125628633
  C           2.44201921596377     -1.07894780327729     -0.78833612244772
  H           2.15651416842529      1.02369730931620     -0.17530863551899
  O           0.64975813797439      0.78338246670986      1.95996295676895
  C          -0.51257883155041     -3.58908400941489      4.07660763695384
  C          -0.32850982652614     -3.02533260989128      2.89279345365140
  C          -0.00446210574347     -1.58103868241079      2.70331514650040
  O           0.78575722968291     -1.46274625783591      1.53599491289125
  C          -0.87613801868746     -5.00912889625013      4.31074546636948
  H          -0.42023252895753     -3.01778586609827      4.99023046525089
  H          -0.41046712396134     -3.59158596412213      1.97679373682986
  H           0.52388651717028     -1.17057495288255      3.57228643125806
  H          -0.93978677328885     -1.01401986508227      2.57911947233482
  H           2.12927245635572     -2.04764742179214     -0.41254394363491
  H           3.53094503115438     -1.04337350853350     -0.81451091048231
  H           2.08050361041585     -0.96072986809876     -1.80974556075365
  H           0.94243146600340      1.63677335249383      1.62431582164604
  Cl          0.34763996977085     -5.76734187033102      5.37287111206652
  Cl         -2.45449581835800     -5.08179050782939      5.15675810950870
  Cl         -0.99910394499523     -5.97200418842478      2.83543068593319
