21
Coordinates from ORCA-job NEB_product E -41.339149613160
  C           1.41882089261734     -1.73351524585552      1.48277004270774
  C           1.56458001031734     -0.21647428955377      1.63594053912629
  C           0.88989143653779     -2.06905078830457      0.09241508116484
  H           2.41740704011036     -2.17067642802624      1.59107060921530
  O           2.28204261533193      0.16546387348113      2.70378816676779
  C           0.52018851298024     -2.24169626087555      2.64998659980671
  C          -0.86174965086613     -2.62911806798350      2.19818673913063
  C          -1.93050492413548     -1.89711481615265      2.44519713008680
  O           1.07733995263385      0.58402903847684      0.89640998019894
  C           1.17394712315608     -3.41532350495943      3.38022983823214
  H           0.41304625923757     -1.44299024174800      3.39433144531874
  H          -0.93611489740876     -3.55613411946775      1.65000394438210
  H          -1.87379800530829     -0.96783052524215      2.98750597924296
  H          -2.90664914479320     -2.19219914006520      2.10258867862666
  H          -0.08589855797876     -1.61829906743255     -0.06220134657511
  H           0.82172996183513     -3.14347372191221     -0.04746925182857
  H           1.56962761164614     -1.66332361724483     -0.65252060170921
  H           2.65101910980186     -0.57995999275411      3.20382094453171
  Cl          2.71975927422075     -2.89724079494639      4.13153724972461
  Cl          0.11079949588557     -3.99520266648791      4.68654270109510
  Cl          1.52131588417866     -4.76956962294565      2.29016553075384
