18
Coordinates from ORCA-job NEB_reactant E -38.952461457480
  C           1.81176235824307      0.50072830553373     -0.04941327124752
  C           1.40174538142383      0.33886062295431     -1.31779839879386
  Cl          1.85791876504913      1.94465796434367      0.88285545879060
  H           2.17052202055841     -0.36318751162676      0.48847635561002
  C           1.47405028429567     -1.00079361209779     -1.80838321491179
  C           2.58205422621082      4.29096475747852     -1.36793214234621
  C           2.26482139414110      3.17654006010302     -2.00350144111549
  C           0.89029415909393      2.57959436117011     -2.02236011269829
  O           0.90731911337597      1.18397253739081     -2.25036470117290
  C           3.95624716001422      4.88792564789877     -1.37522541938886
  H           1.86859990490942      4.84504863704834     -0.77582271054126
  H           3.00767820330069      2.63863676702004     -2.57784206886632
  H           0.34094432794083      2.97112840491770     -2.88705336255038
  H           0.33238484475288      2.82932514295856     -1.11434334628619
  N           1.53478929174838     -2.07614852507132     -2.19535443602478
  F           4.41989903499402      5.02788469918763     -0.10483192313195
  F           4.85230029519248      4.10930229818674     -2.02311820619197
  H           3.98336923475513      5.88895944260394     -1.84058705913286
