18
Coordinates from ORCA-job NEB_product E -38.951733936480
  C           2.76172540278464      1.58668468999160     -1.44757967224137
  C           1.69434264027758      0.76715951609982     -2.15471946357591
  Cl          2.78052123497661      1.01829421972687      0.26003902158682
  H           3.74146363684919      1.33136507695039     -1.86902025706650
  C           1.80468928289953     -0.65359425663744     -1.86824667386089
  C           2.49324559859312      3.09364532939438     -1.57935123332084
  C           1.45051840430777      3.57433354936211     -0.60530842486876
  C           0.19690802994968      3.80569275703607     -0.94241926805241
  O           0.84982123811788      1.22123020194189     -2.87706900090949
  C           3.78699444525211      3.89382915646761     -1.41685664463199
  H           2.14048942982722      3.25913877045704     -2.60470593969358
  H           1.79471091915629      3.70281986095726      0.41091619533701
  H          -0.15630605633897      3.66610361884782     -1.95066287368838
  H          -0.52848194460318      4.13268129796719     -0.21825805441685
  N           1.88101597018174     -1.77825344036894     -1.67479596942216
  F           4.38368663945515      3.66204814346617     -0.22876542861916
  F           4.68642787193355      3.53160033634030     -2.36731331399882
  H           3.62022725638010      4.97832117199988     -1.50598299855671
