20
Coordinates from ORCA-job NEB E -53.190069383720
  C          -0.16823469373333      0.90475642401485     -0.52662534727829
  C           0.39259761255388      1.63413081081211      0.54529600369137
  C           0.32689169186136      1.07488008774328     -1.94421727651539
  H          -1.25748101777274      0.91516636956491     -0.50368680464539
  I           2.45050166514842      2.20867049097226      0.53255938641805
  C           0.07411082210175     -0.87584249867763      0.17619717377463
  C          -0.45813292546652     -0.81290790067567      1.47512934503669
  C           0.11289864646380      0.09146765255516      2.40457298898221
  O          -0.13787811161642      1.54346055114803      1.69529017062076
  C          -0.64470307175724     -1.86513976741195     -0.71957475069368
  H           1.15178168119500     -0.93501924124119      0.05276483670744
  H          -1.49366743107184     -1.09363662848470      1.60734755469615
  H           1.19696513417729      0.09699140900509      2.49702109257311
  H          -0.39239946698977      0.20090754701193      3.35556785939214
  Cl          1.86830250445436      0.26157937528013     -2.26601824528959
  Cl         -0.88474400390631      0.47041338777603     -3.10739718855872
  Cl          0.52984222086299      2.82290021628763     -2.28300521045399
  F          -0.03408460498368     -2.07679894102944     -1.88542781302134
  F          -0.72600573247322     -3.06754350906975     -0.12217045530771
  F          -1.90656091904778     -1.49843583558109     -0.98362332012846
