20
Coordinates from ORCA-job NEB_reactant E -53.222700215070
  C           1.57190861036499     -1.20547381131484     -0.12755915444798
  C           2.35448776919178     -1.04999666253925      0.94046780871285
  C           1.74969756519010     -0.54305335158612     -1.44151956142754
  H           0.72894732260141     -1.87758988603967     -0.07381860755661
  I           4.05250769351319      0.17749809311390      1.02728099739308
  C           0.13275359950123     -4.43546948426033      1.19176941609665
  C           1.18839516608229     -3.76388588187747      1.62084848729607
  C           1.11231130269250     -2.47854126903581      2.38543884011765
  O           2.21732661453533     -1.62587461737099      2.14028305214315
  C           0.24092626511850     -5.74058618882362      0.46508119384861
  H          -0.88456418225869     -4.10377347971120      1.33767252599709
  H           2.18935835001247     -4.13936378734919      1.45153916898878
  H           1.18417727719555     -2.69787003728796      3.45679172876302
  H           0.16939259681954     -1.95215009482904      2.19436498207362
  Cl          3.31441344987719     -0.97415240541921     -2.19354924991919
  Cl          0.45551500549935     -1.05795228361715     -2.54727611297378
  Cl          1.67326800660486      1.23869135636287     -1.30340547361262
  F           1.50240102547649     -6.15459794570109      0.30358860348939
  F          -0.41003103207013     -6.72204383905364      1.11133894241748
  F          -0.30409240594794     -5.66881442366018     -0.76053758739973
