20
Coordinates from ORCA-job NEB_product E -53.226207318470
  C           1.89725044904668     -2.03243507800617      0.66906647413290
  C           3.14295269626933     -2.12551839953925      1.55729473336014
  C           2.08876466808475     -1.69142137626828     -0.81254634740857
  H           1.33490834598614     -1.18682483035821      1.09487301025540
  I           4.96341165836082     -1.17348514211053      0.98628938124817
  C           1.03257667743743     -3.28788080659799      0.98329856050434
  C          -0.43715845667780     -3.12997882058860      0.67433651810855
  C          -1.21935682788802     -2.28334144505627      1.31669368231521
  O           3.11396488235104     -2.65424425551224      2.61833727075412
  C           1.56483160175612     -4.58241468209936      0.37110691681663
  H           1.13514098064901     -3.43745206344925      2.06824333175397
  H          -0.83572738677180     -3.78151598898570     -0.08845991884231
  H          -0.85192961837948     -1.63274327641773      2.09359649382355
  H          -2.26599097233085     -2.20636287015511      1.08585563970007
  Cl          3.33727388359957     -2.66087014921771     -1.61171355171045
  Cl          0.56430023396096     -1.89741920938722     -1.71816669707758
  Cl          2.50270302727515      0.04344498255404     -0.96462927043364
  F           1.30947982766485     -4.72299003179049     -0.93331156190072
  F           2.88958549209839     -4.71718389733780      0.52420943276942
  F           1.00141883750771     -5.63806265967611      0.97562590183078
