20
Coordinates from ORCA-job NEB_reactant E -34.113573473320
  C           1.88633806056728     -0.25609532281792     -0.39147553186953
  C           1.33352177918848     -1.43334990641329     -0.72512580981935
  C           1.54438960256576      1.13286749627328     -0.82500034089383
  H           2.69992588666445     -0.29144732842944      0.31956541253124
  C           1.88432215935666     -2.58404690849334     -0.08053741827974
  C           0.69322092561833     -1.41919529957805     -4.88099063053038
  C           0.87832472072059     -0.83613306130792     -3.69655704589024
  C          -0.12216809754112     -0.91092062672778     -2.58874294131351
  O           0.30433884670756     -1.77370707854547     -1.53551086138331
  N           1.54811706735508     -1.32265555633784     -5.95023612260132
  H          -0.22775602605986     -1.94599278290971     -5.09188436081290
  H           1.80761392552868     -0.32458853853319     -3.48766939291035
  H          -1.04221004122291     -1.38031585909518     -2.94511608050198
  H          -0.36492908125501      0.08034631681561     -2.18855398597705
  F           2.50067231440432      2.00181910255870     -0.35840766491666
  H           0.59184209249596      1.47233785292253     -0.39490162672621
  H           1.52338907034680      1.26144409026215     -1.91382357349812
  N           2.33593573438118     -3.49797611228798      0.44065502902607
  H           2.48336031577717     -1.00879358701564     -5.74191330170559
  H           1.49795074440064     -2.05249689033955     -6.64087375192726
