16
Coordinates from ORCA-job P E -21.503178105320
  C          -1.33816887190094      0.44037633708902     -2.30514621900882
  C          -0.04965503189534     -1.59240504530497     -1.02740431540915
  C          -1.41877402337422     -1.84688665260320     -1.57108766823290
  C          -2.04266846403362     -0.87165584582149     -2.21390821943753
  C          -0.84408262687028      0.85199898184345     -0.91839511018906
  C           0.01760773856113     -0.24895187731874     -0.27633468612490
  H          -1.86133441889027     -2.82217322156936     -1.44573911836046
  H          -3.02664823658078     -0.97675759931526     -2.64064735364407
  Br         -2.51298122102750      1.84389749575890     -3.02807694045746
  H           0.26706057741725     -2.39824747304884     -0.36553526127148
  H          -0.50073937923518      0.38740170882988     -3.00835702158311
  H           0.65322626307956     -1.56035646654996     -1.86685823467772
  H          -1.72168951865475      1.04177057510978     -0.29658216252370
  H          -0.32105253772016     -0.40520519827347      0.74835245734869
  H          -0.28243470293228      1.78499885753338     -0.98985025803016
  H           1.05956445405739      0.07032542364087     -0.23063988839818
