16
Coordinates from ORCA-job TS E -21.395240041520
  C          -0.59513499105113      0.70571027700579     -1.31623056298741
  C           0.86202738163891     -1.39361979914856     -0.04375983853378
  C          -0.46387532764037     -1.49221051175959     -0.32155797836217
  C          -1.18701226957498     -0.45827669969633     -0.95593807009550
  C           0.15846278275372      1.37426498666497      0.83111999429185
  C           0.81349835625835      0.33403516184067      1.39285606290797
  H          -1.04266209248385     -2.28881465889471      0.12446715266864
  H          -2.26542114030285     -0.52939070597441     -0.97264413433184
  Br         -1.62122425433147      2.15312855483959     -1.98080773458307
  H           1.34831222366364     -2.16093635347236      0.53619511321794
  H           0.44844618053747      0.80587945857069     -1.55199468374514
  H           1.51673146048746     -0.78668379573734     -0.64225156577653
  H          -0.87328335755335      1.57056292918118      1.06599654491740
  H           0.31969303366748     -0.29465116960605      2.11373543696163
  H           0.69183185386855      2.16473439584846      0.33099987589636
  H           1.88961016006242      0.29626793033800      1.38981438755366
