33
Coordinates from ORCA-job P E -49.860614671360
  C          -1.68794185233529      0.20772394822646     -1.93618184353272
  C          -0.13881265092215     -1.69855009733340     -0.63193477966274
  C          -1.62199561539346     -1.89207730669433     -0.70715029774023
  C          -2.36309013089421     -1.01002243059174     -1.35690403368190
  C          -0.80529884176817      0.79030161030155     -0.81514902636481
  C           0.25021743001985     -0.22741498838223     -0.35466845575222
  H          -2.03597087206785     -2.78124790149709     -0.25730510695591
  H          -3.43122086477901     -1.11702093436100     -1.46050218347839
  N          -2.55967908711872      1.21689228612035     -2.50808569202649
  H           0.30218505090908     -2.34453072890716      0.12711430579944
  H          -1.00535402055565     -0.10752951514718     -2.73209293310449
  H           0.28790626579205     -1.99117418478229     -1.59787197237086
  H          -1.43372896915164      1.04077359013312      0.03846384104418
  H           0.42970186989547     -0.09542501621278      0.71682068536000
  H          -0.32605361600230      1.70395002096393     -1.16787252017845
  C           1.58580251215571      0.05807477293486     -1.02431100273566
  C          -3.28952896367322      0.84272637978785     -3.72679614506293
  C          -3.38702576048364      2.08535331992721     -4.61893720245333
  C          -2.64542834543034     -0.28013797099705     -4.53780857239930
  C          -3.43151013423701      1.84367618711533     -1.53300291965247
  H          -4.31190855984891      0.51511317327990     -3.46343843891464
  H          -2.38824710746722      2.40039653770581     -4.90809805711106
  H          -3.86632525216442      2.91150227676970     -4.10211293014731
  H          -3.96139784844597      1.86250544736834     -5.51460456001986
  H          -1.64033205068047     -0.00552818691295     -4.84807170189894
  H          -3.24172135134550     -0.44650874450231     -5.43229625225725
  H          -2.60732215755267     -1.21340371081488     -3.98157752587850
  H          -2.84633783256303      2.49099988642854     -0.88119545863679
  H          -3.97781728714182      1.11894645211389     -0.91181253875274
  H          -4.16147531028222      2.46573238347180     -2.04394104142368
  F           1.53261540267770     -0.00430896309399     -2.36332879938749
  F           2.05955053909436      1.27827701831256     -0.72262055673041
  F           2.53817541176068     -0.81373461073081     -0.64681628389206
