33
Coordinates from ORCA-job TS E -49.777783977490
  C           0.35831120381502     -0.36955436008383     -0.56663339956484
  C           2.08228548844433     -2.10526539453026      0.98534211719024
  C           0.90082855265728     -2.51631786044790      0.44056774739919
  C           0.04850761832121     -1.68284926036608     -0.29940481859910
  C           0.34029508344460      0.17572039686883      1.76202833421041
  C           1.27927730109922     -0.57915919807407      2.39825506221172
  H           0.50025127045652     -3.47582605954099      0.73994505961704
  H          -0.92563353381691     -2.07551444314873     -0.55001297599687
  N          -0.42965866858104      0.54624472850436     -1.17730667215169
  H           2.64381485072341     -2.77972343806580      1.61088717559893
  H           1.39294076778926     -0.06955784632413     -0.50322429169862
  H           2.66269129698902     -1.32426896751897      0.52800234160515
  H          -0.69754301186370     -0.09105011818617      1.81001255719468
  H           1.00822330220404     -1.37915199610387      3.06623126949232
  H           0.58667177682239      1.15335692916461      1.39033497465851
  C           2.60067559472638      0.04537809826493      2.69962756442344
  C          -1.87142241331269      0.39225115625515     -1.26906375784874
  C          -2.61799425655418      1.61236405015140     -0.72639206809950
  C          -2.28876859490156      0.08593266598721     -2.71009283874729
  C           0.13650471704117      1.82126280456446     -1.54315661902954
  H          -2.13960403029174     -0.46200253936775     -0.64165361555168
  H          -2.48614691715029      2.47963399524079     -1.36746780792567
  H          -2.27097956833337      1.85656896628671      0.27484952970687
  H          -3.68032996657916      1.38843562995354     -0.67433627042441
  H          -2.07553876571230      0.92847218979262     -3.36334600610046
  H          -3.35466607735906     -0.12036312098642     -2.75516416987291
  H          -1.74823546929636     -0.78249366422562     -3.07824199968200
  H           1.20473295307610      1.71187021597462     -1.72003798668863
  H          -0.00722389591364      2.57613096045083     -0.76236155183216
  H          -0.32442371119772      2.18164444948474     -2.46229849608354
  F           3.54598359660225     -0.82369012683839      3.08672819115689
  F           3.11556190795138      0.73740880435380      1.66494531744799
  F           2.51061159870012      0.94411235251036      3.71243810398423
