20
Coordinates from ORCA-job NEB E -41.103656067120
  C           0.80267825787900      0.59025242088461      0.52009099251074
  C          -0.41918190805201      0.42352541476878      1.21737398300555
  C           1.01707127250036      1.82936386518988     -0.15313980337111
  H           1.70196772018117      0.20438727450012      0.99661560114038
  C          -0.46709326230530     -0.53224813334622      2.39071879739761
  C           0.48398585057770     -0.57096180529996     -0.95611089581131
  C          -0.71531118419255     -0.09714398452086     -1.50040676882379
  C          -1.87575529829740     -0.13449291215458     -0.68897860560911
  O          -1.52593202115906      0.76971883050571      0.65004241912405
  N           1.70295717046295     -0.42576473550764     -1.76411311656138
  H           0.51737534390391     -1.49987192964689     -0.39274526470588
  H          -0.64244919664734      0.64022360318757     -2.28785800381657
  H          -2.10750038289077     -1.07957246337210     -0.20520385020936
  H          -2.75314535242594      0.36734359463442     -1.07556592216050
  N           1.19165756104669      2.83854307129354     -0.66020056366775
  F           0.40016452817101     -1.58330098989500      2.19756362971238
  H          -1.47396545688862     -0.94654633758720      2.50306852696724
  H          -0.16417558132031     -0.03702294623110      3.32023585037859
  O           1.60325106420981      0.06194067520346     -2.85864282149511
  O           2.72340087524672     -0.81837251260655     -1.25274418400466
