20
Coordinates from ORCA-job NEB_product E -41.142591447270
  C           2.70573337527408     -1.56212521044412     -1.10354079968179
  C           1.75414646110171     -2.29322443957368     -0.13999253247455
  C           2.55735505849094     -0.12788233169346     -1.02958866174923
  H           3.73287726016005     -1.81109200490997     -0.78648879408966
  C           1.58330651607015     -1.58416312281270      1.18734391365146
  C           2.52094475361494     -2.08609885957066     -2.53951785428429
  C           1.40710718987615     -1.41386846773520     -3.28464301299911
  C           0.27003213816416     -2.01821381666882     -3.57112526743528
  O           1.23032150881731     -3.32698541176095     -0.42944216751858
  N           3.80750723597442     -1.95136456304993     -3.29814023009446
  H           2.32329085350368     -3.16582137979678     -2.47095371595270
  H           1.58760848798780     -0.38563791085015     -3.56531030766087
  H           0.08121600932482     -3.04151335917832     -3.29091783956996
  H          -0.52104673020431     -1.50755603509828     -4.09042636179822
  N           2.42612941576724      1.00567461441924     -0.98301334168609
  F           0.87313998637054     -2.34849031134006      2.06085832347155
  H           1.03099511508891     -0.64718275709387      1.03706743205704
  H           2.55503153623239     -1.36582662668364      1.64616576886180
  O           4.83151881328846     -2.03905667514085     -2.66471523650742
  O           3.72188501509656     -1.79597133101780     -4.48551931453964
