20
Coordinates from ORCA-job NEB_reactant E -41.148469873070
  C           1.93913324685845     -0.41998953131617     -0.31660868642450
  C           1.42072981027396     -1.65019804948033     -0.18144094137275
  C           1.95941321659573      0.37714770943437     -1.46942119324140
  H           2.40584780873399      0.03328665391904      0.54701819981430
  C           1.48367697062350     -2.39343052344929      1.13104845817176
  C           2.97453362003808     -2.41085929486113     -2.93533726747426
  C           1.79052165150383     -1.90921301762141     -3.26139437885775
  C           0.57191680573403     -1.93678541384498     -2.40215310547961
  O           0.78144396906634     -2.41963310816280     -1.09103041313389
  N           4.08163734333081     -2.35251772105571     -3.84787020300328
  H           3.22077585337855     -2.88333973596702     -1.99678909702268
  H           1.66751543855127     -1.44754295317222     -4.23300405904438
  H          -0.15041777767440     -2.63483916475272     -2.84265699773490
  H           0.11180870915031     -0.94100761192773     -2.38397468242642
  N           2.00643707642982      1.06344062275888     -2.38927031708701
  F           2.11038389526297     -1.66502571972175      2.09721527284358
  H           2.03824470118929     -3.33139868987038      1.01050988037892
  H           0.47094794309351     -2.61584852372258      1.48684716726957
  O           3.88968455942596     -1.91589640033640     -4.95904598370689
  O           5.14166515843401     -2.76194952684969     -3.42784165246842
