21
Coordinates from ORCA-job NEB_reactant E -41.767113359330
  C           1.84962932468144     -0.03014245639571     -0.87919314293660
  C           1.54346519144591     -1.25813493108976     -0.42071456470708
  C           1.79964983115906      0.45253831118750     -2.19132374875527
  H           2.15630943973489      0.71722980048658     -0.16047372549620
  C           1.61916648761262     -1.58257648780218      1.04061220317608
  C           2.97401788928957     -1.82522231454158     -4.15179995095493
  C           2.54993293827404     -2.44580885966064     -3.06340811360447
  C           1.15244398884260     -2.34371628797340     -2.52934684859374
  O           1.13498823016150     -2.33896429203262     -1.11453720161408
  C           4.34771728266312     -1.90865760360612     -4.70846532812835
  H           2.32230617559854     -1.17056887638867     -4.71389681666034
  H           3.20665054069561     -3.08440586177695     -2.48860452071065
  H           0.59857145400260     -3.25018013163498     -2.80018127663907
  H           0.63009863700226     -1.47408216588101     -2.93899897158282
  N           1.76890388470908      0.92006603935273     -3.24156281005440
  H           2.45981672013184     -2.25111470096558      1.22264752311154
  H           0.71344783939297     -2.10468701335578      1.34180746007800
  H           1.74095780389172     -0.68698371092529      1.64047624204804
  Cl          5.07821721576672     -0.27642337570943     -4.69788858844416
  Cl          5.41582497356982     -2.99859061160303     -3.81608888199695
  Cl          4.26728415137405     -2.47667446968408     -6.40155893753451
