21
Coordinates from ORCA-job NEB_product E -41.772788994830
  C           2.89840989548300     -1.58826280786850     -1.46667831053611
  C           1.65849264701740     -2.11484762612111     -0.70942085353347
  C           3.20675846477633     -0.24188906432808     -1.05033625756393
  H           3.73400605878407     -2.23667247002963     -1.16810829301856
  C           1.62922710824097     -1.75981455054304      0.74513218027984
  C           2.68734548012209     -1.70330828058788     -2.99280559454027
  C           1.88855282259310     -0.53860948178814     -3.51458072636034
  C           0.63403364891127     -0.64718549659801     -3.90564501794791
  O           0.81827784176530     -2.76488964989525     -1.26449295483840
  C           4.01449958923309     -1.82698327082967     -3.73549474922801
  H           2.12309059747611     -2.62765588876673     -3.16724461126544
  H           2.40193493593435      0.41251116694936     -3.52618030303176
  H           0.11240903347035     -1.58947831494758     -3.88406866508941
  H           0.07761111810988      0.20563890884461     -4.25278558205837
  N           3.42141133612563      0.82086602436457     -0.68914201335529
  H           2.59955722471019     -1.92102416104058      1.20859850378505
  H           0.86623009422907     -2.34218267129459      1.25514831031500
  H           1.38937587724121     -0.70097401764902      0.84051368223386
  Cl          3.70777194042355     -1.94117956608805     -5.48335117856896
  Cl          5.07890767982579     -0.43190772938973     -3.43480046719813
  Cl          4.88169660552724     -3.30425105239294     -3.23075709847937
