20
Coordinates from ORCA-job P E -32.267381371580
  C          -1.43340092396981      0.46200841818470     -2.28708959801298
  C          -0.04394739391244     -1.60616147872591     -1.09981170603724
  C          -1.39039700711361     -1.89049001520221     -1.68542962255349
  C          -2.05436423623314     -0.90519543102483     -2.26884509673228
  C          -0.95296150526553      0.78811979158589     -0.85288834189667
  C          -0.08410173691313     -0.32273072696819     -0.23379115073680
  H          -1.78315985077675     -2.89229965172271     -1.62088739856674
  H          -3.02797613704435     -1.02610972450957     -2.71626866360149
  O          -2.27753577749725      1.46734480491562     -2.78626271674620
  H           0.30878016865549     -2.43771510010052     -0.49088024718335
  H          -0.57834715433082      0.46229847223668     -2.97884838382005
  H           0.67266946921282     -1.46864626901856     -1.91804355625512
  H          -1.84678271881674      0.92199308173158     -0.23866284132209
  H          -0.48562993953060     -0.59285319126137      0.74583915300259
  H          -0.42829546999208      1.74690382479383     -0.85865188170730
  C           1.35527060586458      0.12198662084425     -0.00393959834490
  H          -3.08945853500751      1.48306622016825     -2.26659642038195
  O           1.94662127099401     -0.06302519231148      1.01906985346811
  O           1.94869684932617      0.71579839341977     -1.05119167915345
  H           1.34930002235068      0.81712715296479     -1.80367010341860
