20
Coordinates from ORCA-job TS E -32.175587329660
  C          -0.90965346560105      0.52276117512660     -1.34855638309786
  C           0.56319594582949     -1.63506019296681     -0.12572686117019
  C          -0.77648857054937     -1.68292413526382     -0.33438217563053
  C          -1.49931621904872     -0.64384833105447     -0.95448917837969
  C          -0.27140949146043      1.17369636360432      0.72929327633023
  C           0.49655943031085      0.20405924541982      1.30696322073677
  H          -1.35492256813042     -2.46095460345330      0.14376891707048
  H          -2.58116217755458     -0.69155429267104     -0.92891162505380
  O          -1.58556617421395      1.58584820743822     -1.83849655222808
  H           1.05180426360881     -2.39663239948416      0.45761334742438
  H           0.13115149649473      0.56956784840876     -1.62814223872715
  H           1.21295776821508     -1.04981464790965     -0.75108798413143
  H          -1.29445984018925      1.28814947894552      1.04393020830628
  H           0.06214376344484     -0.45025401651285      2.04639783421797
  H           0.15192091506443      2.04407816600659      0.25264833818147
  C           1.97407528468446      0.18958412560099      1.30647303500679
  H          -2.53509019362056      1.47338262942078     -1.69832144508172
  O           2.62161985478795     -0.46066656553420      2.08232984033769
  O           2.58931033350196      0.96035489518034      0.38345117892026
  H           1.95332964442574      1.46022704969835     -0.14475475303190
