20
Coordinates from ORCA-job NEB E -49.133615736500
  C           0.47325765582710     -0.62349074692532      0.05135484609802
  C          -0.89483962632641     -1.11122047181479      0.42346607001690
  C           1.54763755337385     -1.36363791508670      0.86201445482724
  H           0.69305369482164     -0.79459239158196     -1.00630995357333
  N          -1.67278246414166     -1.62412764460790     -0.78831991940533
  C           0.55230469685395      0.93369783867751      0.35198569673262
  C          -0.52459870831238      1.62721528776467     -0.43890946610870
  C          -0.31193457756263      2.30264126836977     -1.55134867986078
  O          -1.41686507005472     -1.07271007418938      1.48980770932797
  O           0.49911402256603      1.19469904510793      1.70977466521850
  H           1.54350862429143      1.26726154203360      0.02394966427586
  H          -1.51986129926622      1.55376204179998     -0.01996825595590
  H           0.67219506510051      2.39347665475260     -1.98091379006580
  H          -1.11523059217751      2.78556616640693     -2.07797075443345
  F           1.33684925926608     -1.35056508470625      2.17096494564002
  F           1.60983004700202     -2.64983408361307      0.48683092442161
  F           2.75696969930244     -0.84321929425993      0.63694650782193
  O          -1.56591688696097     -2.79426862450923     -1.03274051323899
  O          -2.29857464023414     -0.78934003723423     -1.38917583868989
  H          -0.36411645336843      0.95868652361577      2.07856168695154
