20
Coordinates from ORCA-job NEB_reactant E -49.145250547510
  C           1.77961829126018      0.03633665103376     -0.11542999664278
  C           1.53618528618506      0.76297541600348     -1.21302149451490
  C           1.56234055897472      0.38629917014128      1.31659456090745
  H           2.15497123994986     -0.96644528109228     -0.26718744767498
  N           1.82289558807828      0.06353532293845     -2.51666413977849
  C           2.79623962923599      4.70678374849908     -1.10146213121422
  C           2.39021479547256      3.66443430005067     -0.38319270789184
  C           1.03840679097981      3.05305938569768     -0.55620016927525
  O           1.08033111446840      1.95762800991255     -1.49333535831475
  O           3.99233462737436      5.30468778423197     -1.01765157074109
  H           2.16212310855347      5.18786906471744     -1.83308056074402
  H           3.05435868895975      3.20015205728543      0.33189808455757
  H           0.35462619696137      3.75740390450901     -1.03270035451157
  H           0.61541486809536      2.72862536008907      0.39502508885216
  F           2.35825926682434      1.38272624893282      1.75819525503355
  F           0.30281014276042      0.77986981907423      1.58906639152958
  F           1.80925454002881     -0.66236214456727      2.10421406290799
  O           1.72689459615613      0.73240069605213     -3.50619527440015
  O           2.12581312371987     -1.10021804671956     -2.46265383769928
  H           4.54940754596127      4.86433853321007     -0.36131840038497
