20
Coordinates from ORCA-job NEB_product E -49.133562886710
  C           2.53388218224447      1.20661492021884     -0.41285041918841
  C           1.38734397922934      0.71596275119340     -1.23353287715211
  C           2.33420880240270      0.82910531360105      1.05752628722994
  H           3.47222788097833      0.74643654456278     -0.74898713535239
  N           1.81040745257243      0.39144432802351     -2.69999361314998
  C           2.71560534630952      2.75013973745849     -0.62520156545667
  C           1.62550819522115      3.53074967358106      0.05333187494440
  C           0.51119705796244      3.90123210078467     -0.54869801814117
  O           0.24414708952277      0.59488483096092     -0.96598691243721
  O           3.99927420057599      3.04410138822074     -0.14558668358105
  H           2.67587523634856      2.92653034460685     -1.71483867611661
  H           1.81004200144631      3.76676288442398      1.09218951956724
  H           0.31234685154343      3.66824752326756     -1.58223332525426
  H          -0.25156108152357      4.45123018032355     -0.02788464985029
  F           3.29605118035334      1.30566282937783      1.84546091124984
  F           1.17431049001553      1.24791317281780      1.56912238711444
  F           2.35202277718307     -0.50694310974302      1.18993113368236
  O           0.90003667426497      0.23975616166015     -3.46327460955694
  O           2.99077749857883      0.33495152694192     -2.93360072198865
  H           4.07529618477040      3.98821689771790      0.02910709343751
