17
Coordinates from ORCA-job NEB_reactant E -41.512960505380
  C           0.79753949141909     -0.01833116380108     -1.00704588603761
  C           2.05996479147005      0.23141027944118     -1.32271718501245
  I          -0.64671359055401      1.48966283005574     -1.17250688112859
  H           0.45574925681872     -0.96702279084313     -0.64104446227109
  Br          3.32424200347997     -1.21232360301833     -1.17856373046293
  C           2.09732456667918      0.89027343209692     -4.41205178877417
  C           3.31105972736197      1.12285692512913     -3.94028874863491
  C           3.60420538081025      1.56949135285855     -2.54230382411043
  O           2.51544778385796      1.44168161861676     -1.65229367005614
  C           1.84675140740609      0.42880830497120     -5.81242751014103
  H           1.19348410650121      1.02461766493742     -3.83660024409792
  H           4.18286034383286      0.99217178799194     -4.56616002665466
  H           3.84261858172963      2.63826340498002     -2.54030987056435
  H           4.47790896529269      1.02377981719974     -2.16047582577639
  F           2.96703559519867      0.26594245509779     -6.52804003412079
  F           1.20030936411351     -0.74998066714573     -5.83553584028195
  F           1.07721222458215      1.29419835143190     -6.49233447187460
