17
Coordinates from ORCA-job NEB_reactant E -30.395117529550
  C           1.29877687055726      0.24300771446130      0.38620232917892
  C           1.56173127373629      1.54003625868801      0.33464103553663
  H           1.59358159025810     -0.39006846201550      1.20152435459571
  H           0.76207593202749     -0.22116419173496     -0.41904485903806
  C           1.14796902472103      2.43380734041404     -0.80851272505187
  C           3.11985404534799      2.88680042123634      4.51403020802102
  C           3.42077756475547      2.64445970091394      3.25348266914544
  C           2.70271024201427      1.63490012319693      2.41875520310767
  O           2.22757980997710      2.29224765835687      1.25835747851521
  F           3.79428977412499      3.78871620620622      5.23925165620583
  H           2.34841807813298      2.39865424233601      5.09267032014775
  H           4.20668467994239      3.19881751457648      2.76360430708408
  H           1.86665544722627      1.19291883861623      2.97619309085803
  H           3.39787520699710      0.83274448461727      2.12791675343668
  F           0.45440880342052      1.74876784030587     -1.76552743598082
  H           2.03093198621515      2.86830026892612     -1.29093185616934
  H           0.49957967054560      3.23885404089884     -0.44461252959287
