17
Coordinates from ORCA-job NEB E -38.170269197510
  C           1.12506707690311      0.24072681418119     -0.29819311689922
  C           0.42231611128113      1.41749443241669     -0.05206112581781
  C           0.85047254210136     -0.41727926500601     -1.63070136570847
  H           2.16743027951009      0.19928190490364      0.00028516216502
  F           0.96532160077045      2.24143116781077      0.89440106878008
  C           0.13292195071511     -0.87599874050752      1.06840786878588
  C          -1.19165213779767     -0.69804616923421      0.68498141197681
  C          -1.74658152950993      0.59494730499706      0.78454968605778
  O          -0.80540068793483      1.55875114652562     -0.27591025786443
  Br          0.88049457402999     -2.62508484688979      1.02651207159739
  H           0.52314045931377     -0.32347079087352      1.91524587986363
  H          -1.64365881009111     -1.41809549076004      0.01861882869078
  H          -1.55547682000894      1.16076742266404      1.68956849334846
  H          -2.73762524856870      0.74629580584356      0.38003787764209
  F           1.35959453669129      0.35988785008370     -2.62115804554190
  F           1.47443239941161     -1.60456075013801     -1.74381396056605
  H          -0.22079629681673     -0.55704779601716     -1.84077047651003
