26
Coordinates from ORCA-job NEB_reactant E -31.445142767430
  C           2.00101127636672     -0.34222459561705     -0.19419959200218
  C           1.44118462885773     -1.35847369262438     -0.84829575207800
  C           2.39312015713031      1.03897324728407     -0.63413923825531
  H           2.20220429007595     -0.53604959786692      0.85046188845607
  C           1.18189705676879     -2.67317108848502     -0.14708365615020
  C           3.55638957364653     -1.03949174339122     -3.39804898989335
  C           2.52284294509869     -0.25314193785711     -3.64546437984259
  C           1.14425707465211     -0.43142383242460     -3.07398953801313
  O           1.01799889158065     -1.47987515688262     -2.14441016655103
  C           4.91949678522724     -0.85392633485889     -3.97294262309862
  H           3.44227025135364     -1.87921250225816     -2.72651710603092
  H           2.61384044344547      0.59096725016947     -4.31767448924375
  H           0.45979889873079     -0.70682657903321     -3.88814174836417
  H           0.78613232747412      0.51418855286338     -2.64818106755680
  H           2.81009575927486      1.05291363982022     -1.63797891376531
  H           3.14617920303170      1.42838058670122      0.04845992919584
  H           1.54026811893356      1.71993379711271     -0.60071120243262
  C           2.28866913226759     -3.68287747816974     -0.45009457302696
  H           0.22990137268050     -3.07001583416539     -0.50324678496985
  H           1.11408069438107     -2.51225677724997      0.92858039618292
  H           2.33832002945032     -3.87303836347328     -1.51940944759528
  H           2.09354113374493     -4.62401082883023      0.05897535945993
  H           3.25102558877453     -3.30000709288244     -0.11665494909047
  H           5.64556054508805     -0.70523944862759     -3.17375541603691
  H           4.95034879784153      0.00363258340469     -4.64093763973840
  H           5.21766502412261     -1.74362677265794     -4.52680029955888
