22
Coordinates from ORCA-job NEB_reactant E -37.462444178550
  C           1.47425437276587     -0.06386041999828     -0.17311632785754
  C           0.97758793315059      0.60084441060825      0.87338029576199
  O           2.47877860938323     -0.99937296388594     -0.04661794378817
  H           1.12241979184550      0.13838078130022     -1.18027438763904
  O           0.04175156571615      1.59116932256630      0.73673871022565
  C          -0.93790128564602     -0.20225078165665      4.60558889214448
  C          -0.60695423593044      0.37710677636073      3.46486334731914
  C           0.72758692085085      1.00595881391768      3.19926997809961
  O           1.41518724317143      0.37271223675353      2.12928068778736
  C          -2.26380814358467     -0.83416138105811      4.88519068345937
  H          -0.24909931103337     -0.24697873439257      5.43797317810646
  H          -1.30816146631937      0.40634320248716      2.64287504801313
  H           1.39143366185272      0.88725158099604      4.05848769630679
  H           0.59586361315338      2.07315350550270      2.98066448395865
  C           2.22393814856201     -2.19735480095436     -0.74096850655940
  H           3.11557192983025     -2.81179568810237     -0.63280727762779
  H           2.03934674443640     -2.00697922942342     -1.80591986876481
  H           1.36144225583910     -2.72864494689813     -0.32258202115716
  H          -0.17670803169629      1.70130386987435     -0.19376015707038
  F          -3.11519277284289     -0.75473880095153      3.81293381655706
  H          -2.76599299456894     -0.33608187471098      5.72462515591229
  H          -2.14634454893549     -1.90040487833461      5.11737451681232
