17
Coordinates from ORCA-job NEB E -41.665783392510
  C           0.06133217449177     -1.46584654936934     -0.38876589263976
  C          -0.86935221791635     -1.60705917132976      0.64874050327210
  Cl          1.71107888950513     -1.85348038823225     -0.00467972456397
  H          -0.21533618517090     -1.80082509996923     -1.38208723675452
  Br         -2.72793801872680     -1.70163207055597      0.01728599123030
  C           0.01771391937522      0.51446079926856     -0.48053099970732
  C           0.29305251026863      0.87058229381487      0.84463515273884
  C          -0.64340812951374      0.53198452186959      1.84298155531149
  O          -0.69287390552521     -1.16495210158057      1.80723635135160
  C           0.94420082240238      0.97251765373513     -1.57597577026661
  H          -1.01633495033829      0.57844576253827     -0.81294736262768
  H           1.31979774998408      1.04088206712851      1.13087974208671
  H          -1.69356451366907      0.71191824507257      1.63215881623457
  H          -0.36854253556703      0.71497819514027      2.87238164905855
  Cl          0.49449111883761      2.67350953947346     -1.94930428643673
  Cl          2.65495995778605      0.95373742296970     -1.13322175436311
  Cl          0.73072331377653      0.03077888002618     -3.06878673392448
