17
Coordinates from ORCA-job NEB_reactant E -41.695463675920
  C           2.16856758290360      0.84895488133906     -0.77425655854750
  C           1.10383203755263      1.57083836046081     -0.44223710873024
  Cl          3.80034160446161      1.14620414792377     -0.28868846193084
  H           2.05952609057906     -0.01212174488029     -1.41166484186422
  Br         -0.57246526862429      1.00989226007743     -1.13473297825694
  C           2.50620391338775      4.18056057911183     -1.47718956101546
  C           2.86114390268396      4.01926810642455     -0.21177355066760
  C           1.98163738104461      3.39631936324488      0.82819642178050
  O           0.89071144701585      2.66315718929718      0.30137992276960
  C           3.36664298745741      4.73869608972904     -2.54965364508627
  H           1.53106333960223      3.87846307078453     -1.83498137173262
  H           3.83010416645261      4.33592902475234      0.14327140266457
  H           1.50942363506073      4.18105184696064      1.43006402970932
  H           2.58071762615285      2.76583656210820      1.49446652066344
  Cl          2.51491238922536      6.07950007199902     -3.36651449906096
  Cl          4.92812378029353      5.33660591231705     -1.97648484151124
  Cl          3.67141338475050      3.45094427834996     -3.76060087918355
