20
Coordinates from ORCA-job NEB_product E -44.770036523350
  C           2.91462676582575     -0.11076390010400     -2.31313123026223
  C           1.59489943094099     -0.85463442333641     -2.45303570093309
  I           2.64630384440387      1.12009681206743     -0.55504390256758
  H           3.72530925046880     -0.79509670587537     -2.06037153363172
  C           1.68074667796537     -2.27106863734482     -1.90235999052947
  C           3.32873260716448      0.76125418003732     -3.50695553933708
  C           2.22571171752280      1.66153716367293     -3.99435829658576
  C           2.19823765629228      2.95517431850008     -3.73674855851260
  O           0.58921043209731     -0.37029950531970     -2.88132308842588
  C           3.83961036831392     -0.12966139434678     -4.64323260742610
  H           4.17835540469330      1.38078423604006     -3.19382859429948
  H           1.43287134238965      1.18454899957022     -4.54929575317734
  H           1.38708276040610      3.57533867916862     -4.07395422284907
  H           2.97643596393938      3.44651998981774     -3.17489764571405
  F           0.48409638030411     -2.91043100152713     -1.99964797046779
  H           1.95795001931218     -2.24584095805929     -0.84055124386589
  H           2.41769541678033     -2.85589574313068     -2.46597232441402
  Cl          4.26869309019751      0.87890284340194     -6.04210928437638
  Cl          5.30406293668156     -1.01842905773836     -4.13534224777062
  Cl          2.62146793430033     -1.32503589549382     -5.14944026485384
