19
Coordinates from ORCA-job NEB E -42.269530768300
  C          -0.66320796398757     -0.37761896476943      1.21077143662484
  C          -1.41484694263287      0.76423339680108      0.88057252102135
  N           0.43211030523750     -0.24689622022435      2.01476829980891
  H          -1.19480777384870     -1.31765291967710      1.30063853551695
  F          -2.66374183207034      0.47541972203234      0.36905004144114
  C          -0.00211838685179     -0.46046055314198     -0.80433074073513
  C           0.59290079769326      0.78256281561682     -0.98345249103957
  C          -0.22154549028031      1.91934177100367     -1.02980596250986
  O          -0.93924097665338      1.88245423638457      0.61112086056877
  C           0.86842173193342     -1.67787015544384     -0.77404464635895
  H          -0.97269393824364     -0.66273616107520     -1.23954531717499
  H           1.63792660385452      0.89446652587184     -0.72905352147515
  H          -1.16164458024340      1.86207078334015     -1.56102863168827
  H           0.24144144953224      2.89339112241689     -1.03614730521383
  H           1.01845170886767     -1.05584455372088      2.14085492734779
  H           0.92903510122217      0.62849443603935      1.93326140362235
  F           0.24907654479378     -2.75131145444582     -0.25366462036171
  F           1.27451758496450     -2.04228904013947     -2.00268223467551
  F           1.98996605671295     -1.50975478686863     -0.04728255471911
