22
Coordinates from ORCA-job NEB_reactant E -47.702011329880
  C           0.91172734159712     -0.10559146698096     -0.14022874513424
  C           1.72031366015782      0.67720768025803      0.59386531281551
  N           0.09701629006317     -1.07102630332622      0.38325247920948
  H           0.91819503223942     -0.02351186533006     -1.21613601609905
  C           2.66488897756650      1.63332675179963     -0.06642013895342
  C           4.70182008448835      2.22064032380635      2.78819647530234
  C           3.42430948918167      1.92432316552647      2.96139087354858
  C           2.84699341856818      0.56551381422442      2.70535364705839
  O           1.63060867243084      0.62861223465442      1.97879667841379
  C           5.32323886519296      3.54177548395784      3.00660062085602
  H           5.40439644262882      1.47141244803610      2.44187949086330
  H           2.70175526512314      2.66518778301430      3.27663650074517
  H           2.56974413201988      0.11798867256813      3.66767354928612
  H           3.57277444588052     -0.08706768575518      2.20668520562142
  H          -0.01729407730731     -1.02801510269380      1.38432063357607
  H          -0.73197252665764     -1.30706846605636     -0.13513007434933
  F           2.61274525572600      2.87624187765880      0.47641869296947
  F           3.97373920012475      1.24583645676052      0.05602053739293
  H           2.46139235487648      1.72603049510731     -1.14242620548960
  Br          6.78215175488080      3.36067804509870      4.32912547893578
  Br          6.12362057578843      4.18225511980264      1.32728717694843
  Br          4.12293534543010      4.91625053786889      3.65343782648282
