22
Coordinates from ORCA-job NEB_product E -47.694195991430
  C           2.92115455917596      0.97494358620272      0.83020976284233
  C           1.82374965640706      2.03461977985876      0.70023735737466
  N           2.29682554797471     -0.33296508789945      0.89939221577016
  H           3.57135073708367      0.98714494157138     -0.05133716441251
  C           1.74163812888238      2.74233914677998     -0.67182917946019
  C           3.78666709540153      1.13998098283442      2.10440148250382
  C           2.94561090342407      1.29062751177553      3.34165363515561
  C           2.75119786971501      0.30654354582087      4.19976334700860
  O           0.94939647406669      2.18542062497513      1.50970966081366
  C           4.76847502623676      2.29328388155618      1.98749977606360
  H           4.36798996647032      0.21161284620441      2.18439868223049
  H           2.48384129845766      2.25610808323863      3.49473034565398
  H           2.13668401109526      0.43937746412814      5.07236101663577
  H           3.19668302739964     -0.66569234217818      4.06471214745386
  H           1.66999162743586     -0.38583965924168      1.69626968626528
  H           1.77603810454649     -0.54643244366764      0.05761082692815
  F           1.22222075365020      3.97483226310325     -0.54946892130014
  F           2.95695615627199      2.87213395364166     -1.25116782515893
  H           1.09947706470167      2.16386472134959     -1.36039376758363
  Br          5.79260043576341      2.44412077190219      3.64320352553625
  Br          6.04897082124662      2.00353628605172      0.53937925371893
  Br          3.86988073459303      3.99773914199237      1.67536413596024
