23
Coordinates from ORCA-job NEB_reactant E -32.499896416260
  C           1.77000764355656      0.25280206942796     -0.12829116982566
  C           1.34042383499189      1.38903091920497     -0.67128430108809
  C           2.16647646326718     -0.12831743109270      1.26535796176731
  H           1.84552940565344     -0.57854815977447     -0.81763795992142
  C           0.99527685828800      1.45641014814982     -2.14121116086414
  C           4.06182928037625      4.14383328713353      0.80115106710908
  C           3.30985591556155      3.06160960681986      0.81849941453650
  C           1.82353514651560      3.10651464654282      1.00113267437785
  O           1.11779380539765      2.63155953015533     -0.12440350798172
  F           5.39164101682001      4.07752948820180      0.62892421428614
  H           3.72371976084573      5.16098100661175      0.93877013201708
  H           3.75551626266373      2.09195626588144      0.65661238003761
  H           1.48912458784730      4.14319002146549      1.10761759453999
  H           1.53361960378071      2.56161395096315      1.90953564772958
  H           2.07522483760727      0.67232405745407      1.98929303171756
  H           3.19725166176818     -0.48807029033641      1.27208541623500
  H           1.53607882629930     -0.95400379628180      1.59781084440859
  C           2.16641874307775      2.02962018099776     -2.93940497058778
  H           0.12896713619031      2.10944215317433     -2.25603793022053
  H           0.73963302127323      0.46519206390631     -2.51426048246763
  H           2.42791778884336      3.01636349927215     -2.56463652959467
  H           1.90377706432306      2.11639234989956     -3.99093061926694
  H           3.03748133505192      1.38407443222328     -2.85029174694369
