23
Coordinates from ORCA-job NEB_reactant E -32.608505280130
  C           1.81717452798046      0.03807256403067      0.37872871585672
  C           1.39034302838191     -0.17058046699664      1.62824301757467
  O           2.16879188202391     -0.95520385669860     -0.52441630776145
  H           1.86306635363140      1.05489358716065      0.01023916969516
  N           1.01500567702149      0.89834848791181      2.45206221150700
  C           4.45406661465028     -2.39631416144226      1.12308891633955
  C           3.54445829269305     -2.09721929935820      2.03387739695010
  C           2.08875480561861     -2.43546354017083      1.91764557044777
  O           1.25791630939350     -1.35095447812815      2.30205003033348
  C           5.90307366982535     -2.03878016510206      1.21556376059249
  H           4.15886840737577     -2.92069781772362      0.22301680356569
  H           3.81420538339663     -1.56009527622148      2.93396678989646
  H           1.82500767784390     -3.22988825756402      2.62526754466981
  H           1.84868070951556     -2.76260321014322      0.90091408311300
  H           2.98014361221903     -0.69572935342167     -0.97415075412546
  H           0.45146369392260      0.57496399849662      3.22638931490368
  H           0.58223890221051      1.66719735892322      1.96271397498456
  C           6.29376446384504     -1.07001167153527      0.09852142045454
  H           6.50603429186191     -2.94668336184065      1.12608537841082
  H           6.11273141244671     -1.58357302107867      2.18491598036307
  H           6.09345995135585     -1.51069504033924     -0.87606881313766
  H           7.35249924998944     -0.82851699733700      0.15574407527062
  H           5.72435108279708     -0.14706602142141      0.18670172009537
