23
Coordinates from ORCA-job NEB_product E -32.646858551860
  C           3.02642553451453     -0.39827815563458      0.60404305136824
  C           2.58296088319507      0.27371121589378      1.91379379485213
  O           1.92722987325295     -0.66716532818548     -0.24196207626730
  H           3.64913166059701      0.32563001089386      0.06709179430238
  N           1.25606296741684      0.50677383578084      1.97263366581812
  C           3.83560092903477     -1.69276569039003      0.86015675087023
  C           3.00032362531682     -2.58726450417096      1.72877536994338
  C           2.27324532932620     -3.59342127805813      1.27572832766250
  O           3.34781054919022      0.56150989096089      2.80838432331786
  C           5.20802296823653     -1.44021142139479      1.49324438820863
  H           3.97557532647293     -2.16680029806604     -0.11976280126372
  H           2.99064384787079     -2.32793617120985      2.77871739313743
  H           1.66557300369323     -4.19864313622976      1.92719125077770
  H           2.27616611365060     -3.87639865575617      0.23398103510167
  H           1.56232536471976     -1.52492300679539      0.01724429173846
  H           0.88488470281438      1.03115663234190      2.74666587192672
  H           0.70211234837296      0.38420859733239      1.14021935048163
  C           6.20214707960649     -0.80957828741960      0.52596477608274
  H           5.60208852124967     -2.40259566562435      1.82907789746276
  H           5.08439545599269     -0.79877472844193      2.36541343935868
  H           6.30936211336803     -1.41771202118678     -0.37048521145450
  H           7.17650556027395     -0.72482555133343      1.00074064675992
  H           5.88550624183358      0.18770371669362      0.23204266981436
