22
Coordinates from ORCA-job NEB_reactant E -41.223818654170
  C           2.00182162999682     -0.12695160658632     -0.20689639594773
  C           1.73380067181094     -1.24052431990855      0.51039797398525
  C           1.44108986808468      0.32197311047591     -1.50153583233326
  H           2.70712736611482      0.55972263529052      0.22982142964661
  N           2.34815191269687     -1.44004391580195      1.72612829097932
  C           2.01011579034658     -4.33442808055985     -2.48340029057669
  C           1.95829957593048     -3.27634701639436     -1.69372948354218
  C           0.70037235723538     -2.75277939884640     -1.07229601852267
  O           0.91156571171354     -2.27966758033006      0.25150224585707
  C           3.25681811564674     -4.84725197473272     -3.13024844472594
  H           1.12344644779338     -4.90130386643033     -2.73163652702202
  H           2.85773191544454     -2.72135651319831     -1.46640876217505
  H          -0.03795880587163     -3.55033415021335     -0.95493349554309
  H           0.25770023273541     -1.97944572723163     -1.70619453135667
  F           1.84603624934305     -0.41734477984892     -2.58474799419582
  F           0.07229146714370      0.26615205586181     -1.54625762925001
  H           1.72078713727879      1.36337925435145     -1.71658835301469
  H           1.93785850059681     -2.17284820656030      2.28246811505477
  H           2.65317760046778     -0.62687611245680      2.23255144229701
  F           4.37517609056871     -4.17360548267983     -2.71268092565078
  H           3.20628903633733     -4.73185033266077     -4.22074957888454
  H           3.41650112858528     -5.90546799153926     -2.88656523507890
