22
Coordinates from ORCA-job NEB_product E -41.247702702640
  C           2.60322060031919     -1.52443576350099     -0.76867059490854
  C           1.55135708509635     -1.17993862106064      0.29873587958665
  C           2.78779163296706     -0.30308900509566     -1.67768540000397
  H           3.56828041471500     -1.65678385560705     -0.26349867164684
  N           1.40713764562670     -2.11443047100183      1.26186604046114
  C           2.23647489506669     -2.85094897973505     -1.48210337975470
  C           0.80015985282267     -2.86157285638380     -1.93049486216359
  C          -0.11194440200206     -3.67079534482499     -1.42807827100177
  O           0.93336515036807     -0.14382153055589      0.30379963540044
  C           3.17449753290407     -3.18584821724192     -2.65309230534330
  H           2.38365558351165     -3.65849753122789     -0.75412541798052
  H           0.55087605475048     -2.16121187796315     -2.71229709861467
  H           0.11517098365421     -4.38487994905848     -0.65129021874365
  H          -1.13001309634910     -3.65604905766025     -1.77466427281105
  F           4.00934797816757     -0.34262520834887     -2.27174902806341
  F           1.88050603502784     -0.21520475005580     -2.66396167414607
  H           2.73232657597647      0.62845576699206     -1.09257216999616
  H           0.70613148043201     -1.95989941009830      1.96760222498519
  H           1.89785313597451     -2.98937534001158      1.25607228086835
  F           2.87988144729301     -2.47723461378386     -3.78066323324139
  H           3.06267923977510     -4.24351963517885     -2.91852086342788
  H           4.21924417390251     -2.97029374859720     -2.40270859945425
