15
Coordinates from ORCA-job NEB_product E -26.622070699680
  C           2.64236780536691      0.63519405258502      1.17170180609870
  C           1.43129277392520      1.42265852160880      0.74416766046208
  C           2.58297890588581     -0.67823383939358      0.56242825872604
  H           3.53582047407536      1.13869086147262      0.77890787449913
  I           1.41807145507121      1.78823878996933     -1.40028754281288
  C           2.72620646065371      0.51629532446085      2.70855055185712
  C           1.58080666365730     -0.26463538357403      3.27870682711004
  C           0.75518124170326      0.20133382949519      4.19501862245565
  O           0.55781510783735      1.83614289739808      1.41633973607336
  H           3.66699335565515      0.01333435689621      2.95218611766437
  H           2.74587504168677      1.51991935376968      3.13783085093382
  H           1.46640604496525     -1.26743159423834      2.88732451465030
  H           0.85064234165769      1.19875254074669      4.59126453105811
  H          -0.05270766403863     -0.39232591447955      4.58499077191002
  N           2.53854999189766     -1.72493379671695      0.10996941931413
