17
Coordinates from ORCA-job NEB E -31.362554585850
  C           0.78348328881137     -0.11978828131317     -0.59277286582569
  C          -0.57740884718136      0.18410914462546     -1.17315535666721
  O           1.03061327033906     -1.51331362209696     -0.59391683325014
  H           1.56016860512837      0.39012803294727     -1.18747902496147
  C          -0.79324728271849     -0.24220566633446     -2.46891836937021
  C           0.89961212796544      0.36172968623828      0.89914769897284
  C          -0.41242867252950      0.10378689874973      1.53951993514219
  C          -1.51477394377603      0.87206858739579      0.94671054827108
  O          -1.59157747863222      0.72691224086579     -0.50232967118558
  O           1.99996655865872     -0.22657773263419      1.51178944857178
  H           1.09778400410939      1.44277756093471      0.87649912621347
  H          -0.59243482969281     -0.84670289692733      2.00927449779453
  H          -1.39432061457580      1.95334900344673      1.11444028721191
  H          -2.49715719473842      0.56428265582398      1.31087930490913
  H           0.91879352918919     -1.86450763940534     -1.48434909975277
  N          -0.86768788585898     -0.60603535680831     -3.56698567494460
  H           1.95061536550208     -1.18001261550798      1.36164604887073
