17
Coordinates from ORCA-job NEB_product E -31.419083252370
  C           2.95887256565858      1.46193722786266      0.68950241011472
  C           1.82262734743702      2.09052580547924     -0.09568883013170
  O           3.06004654194878      0.10182847873158      0.39249739494809
  H           3.89482116189072      1.99306211616528      0.44972479012693
  C           0.86010451165499      1.11643619557807     -0.57919398016370
  C           2.65987012519474      1.68688770695254      2.19955958154407
  C           1.27982084480522      1.18792760339903      2.52652165594091
  C           0.29284128758383      1.97101937907983      2.91796069560781
  O           1.69688910595127      3.27496037109505     -0.26522847495205
  O           3.66616969964444      0.96238271152212      2.88286687697470
  H           2.73977895538976      2.76265149164420      2.41407007169550
  H           1.14268867236373      0.12196968699517      2.40417554228589
  H           0.42395024591345      3.03471070910440      3.03442472355226
  H          -0.68858024090056      1.58216770893921      3.12555424456122
  H           3.59755892732532     -0.30025226691687      1.08983281960936
  N           0.07942528182731      0.36376444239653     -0.94297634404309
  H           3.46901496631140      0.96692063197197      3.82519682232906
