17
Coordinates from ORCA-job NEB_reactant E -31.431221292960
  C           1.52329886444473      0.07576891469070      0.02183702449745
  C           1.33605024683558      1.40721685028462     -0.04828748205080
  O           1.38061612237752     -0.69256490457373      1.14430407894693
  H           1.82436092638036     -0.43032133242142     -0.88585762397084
  C           1.54469543088405      1.98467034440726     -1.33022415340818
  C           2.87723725955903      2.76081836430322      3.55672011064212
  C           2.30429202048707      1.80831579375993      2.83376615132431
  C           0.92853037280397      1.93926691963810      2.25768064537060
  O           0.94915051166176      2.31727831867344      0.88424556980307
  O           4.11497059230616      2.71607963478846      4.09217901367080
  H           2.37476029587685      3.68489917040237      3.80391445220666
  H           2.84058813064905      0.89855276897925      2.59863649869356
  H           0.38965636513470      2.75634166665557      2.74241992220375
  H           0.37071809696547      1.00638292922357      2.38256568681430
  H           1.60712556798666     -1.60652332085099      0.94887109703853
  N           1.71902149432993      2.43313033230937     -2.37041817293279
  H           4.55162770131711      1.88918754973029      3.84964718115052
