22
Coordinates from ORCA-job NEB_reactant E -37.289348117790
  C           2.19691334869400     -0.58016359311305      0.37689074970551
  C           2.13605504490237      0.39780721492803      1.28193846832792
  Cl          1.43584089483173     -2.09304082242368      0.62219299037976
  H           2.73086281324264     -0.47087046178325     -0.54971160134795
  O           2.83840844208741      1.54216509731340      1.03697359331724
  C           3.95690670969046     -1.63296417892063      3.27152287876063
  C           2.68915119318472     -1.37559520873107      3.57791615818467
  C           2.15894269249760      0.02053420439531      3.61132878514674
  O           1.40437307873098      0.33016865279488      2.42112175714852
  O           4.56583725308132     -2.82629394070780      3.14038764253077
  H           4.67247652482059     -0.83581360257557      3.10921270801402
  H           1.96096294968814     -2.15703912888753      3.72037945771085
  H           2.98078236508379      0.73733895406486      3.72716597086194
  H           1.43522100436990      0.15516810859136      4.41743411649638
  C           2.32918053484353      2.73156971376056      1.61969730861139
  H           2.80127636814644      3.54856678521055      1.07770197215433
  H           2.58613341178709      2.80277372790409      2.68042882839675
  H           1.24429107836774      2.78973202734944      1.51109408540526
  C           3.76441089599764     -3.98230076396426      3.25281344746262
  H           4.42612078182367     -4.82547031181371      3.06413431954842
  H           2.95829694846004     -3.97339255036870      2.51391584424940
  H           3.33645566566822     -4.06937992302324      4.25606051893483
