18
Coordinates from ORCA-job NEB_reactant E -34.278626986090
  C           1.18567954371237      0.03852647042455     -0.21917988614032
  C           1.08621752201786     -1.13158414836223      0.41183031466348
  O           1.52759273570878      0.11891387242294     -1.53044333163377
  H           0.99889637259771      0.96322931971611      0.31126471915680
  Cl          0.54771142608873     -1.12188073959753      2.08065459188333
  C          -0.96925859311019     -3.65768888610614     -2.17987857284617
  C          -0.70655805179594     -2.95934741656855     -1.09282971336142
  C           0.38201126531821     -3.31876467428274     -0.13240885391366
  O           1.41174141934019     -2.32860938152411     -0.10352887973993
  F          -1.94869245364633     -3.30917529873830     -3.02568751899381
  H          -0.46696275411519     -4.56171535951758     -2.49307911325209
  H          -1.26678205828427     -2.06071437318375     -0.87809619886281
  H           0.88745939424809     -4.23733605176894     -0.43374493090812
  H          -0.03216009466842     -3.43905466514478      0.87791208616111
  C           1.83047216049317      1.41572823556439     -1.99255270520555
  H           1.99752078408298      1.32362587030554     -3.06377426672597
  H           2.73545364882876      1.80613972046572     -1.51594852915032
  H           1.00145773318351      2.10770750589540     -1.81120921113077
