18
Coordinates from ORCA-job NEB_product E -34.292483984550
  C           0.53734169837314     -0.76600957371215     -1.11753192884876
  C           1.33526515785762     -1.07725162243422      0.13740576200245
  O           1.38330599659807     -0.40381959102397     -2.17088752090421
  H          -0.20194703460035      0.02156413181526     -0.90239039183175
  Cl          0.42462163400678     -0.72998640802220      1.61003986861213
  C          -0.21739017459318     -2.04711527956207     -1.56067942386082
  C          -0.72935295788465     -2.86012064551221     -0.41040463635234
  C          -0.14667833752928     -3.96338882148435      0.01790062710777
  O           2.43595670873173     -1.50260129228361      0.20119740761387
  F          -1.27751254400256     -1.64995118836575     -2.34484269754452
  H           0.45748630479057     -2.62041674796824     -2.20657169392845
  H          -1.63243153833375     -2.47835189330344      0.04441048674187
  H           0.75052104099367     -4.34628395809392     -0.43970395605273
  H          -0.53724199468019     -4.51882846416035      0.85235854014287
  C           1.94616810443511      0.88453967880365     -2.04834378574940
  H           2.52054404118492      1.04477950814190     -2.95756997487296
  H           2.60991348055282      0.95340888034299     -1.18075882796311
  H           1.16463041409952      1.64863328682269     -1.96772785431190
