19
Coordinates from ORCA-job NEB E -34.061566728960
  C           0.38210038882513     -0.90017312664983      0.79325962621633
  C          -0.81509417804968     -0.91644281754517      1.38818321710988
  Br         -0.59131010653821      2.85641995250561      0.10837419468502
  H           1.29952663536236     -0.97724196504515      1.34961107259235
  C          -0.94398676763259     -1.09731139294196      2.79249102673730
  C           0.46206413104600     -0.78937715999766     -0.71729944432715
  C          -0.68568602331264      0.04146358911124     -1.16435665719433
  C          -1.91934734870794      0.03972954150261     -0.42325517914453
  O          -1.99381395809728     -0.78439199309149      0.70760739637935
  O           1.72089799423626     -0.44177768121521     -1.21700633787228
  H           0.30718590422492     -1.80659520856454     -1.13388581898581
  H          -0.59099384104599      0.67659192316987     -2.02788241618538
  H          -2.80921913709116     -0.15410833245704     -1.03122967638234
  H          -2.04743191857239      1.12444520415620     -0.08170742195872
  N          -1.02761045909050     -1.23656923589554      3.92508736100450
  C           2.20404296317425      0.84573498810629     -0.87696891828802
  H           1.69310099717909      1.63041446047807     -1.44037596409540
  H           3.25884770761892      0.84122767087294     -1.14216655529962
  H           2.09672701647148      1.04796158350076      0.19152049500887
