19
Coordinates from ORCA-job NEB_product E -34.087541921080
  C           2.85756113376868     -1.23320450512363     -1.54829959314988
  C           1.72476243608636     -1.92854128468599     -0.81851674343621
  Br          2.82962021151704      0.57734785930936     -0.75823948659372
  H           3.82391429174294     -1.65935619388698     -1.26157084842548
  C           1.99753096342141     -2.06069142893846      0.60342238502535
  C           2.69485268313295     -1.28104239372056     -3.08578810370380
  C           1.80024826958895     -0.18116754669545     -3.58860973610831
  C           0.55931198767564     -0.38633043574911     -3.98554139182801
  O           0.71178813134642     -2.31510283914486     -1.33417520832902
  O           3.94625265827704     -1.38979851840437     -3.72289356785275
  H           2.21629596261404     -2.24745178855459     -3.29929283684180
  H           2.22557343891090      0.81239875847169     -3.58675994744216
  H           0.11426622679566     -1.36728430020581     -3.98232632306448
  H          -0.06518437220108      0.42546248010287     -4.31655949422265
  N           2.24192789771994     -2.17889330859650      1.71462667672490
  C           4.72687197919679     -0.21602947409335     -3.83948303996442
  H           4.29881341384877      0.48352730472955     -4.56287886856093
  H           5.69507909007215     -0.55309904507446     -4.20513889554583
  H           4.86461359648537      0.29025666026064     -2.88027497668080
