19
Coordinates from ORCA-job NEB_reactant E -34.101884175250
  C           2.20266414781626     -0.48379029330035     -0.29737401721524
  C           1.48960319811738     -1.47490747736131     -0.85720632675956
  Br          2.57619643889697      1.24444145241353     -0.95121823191322
  H           2.64343279278289     -0.64978930747485      0.67254102888342
  C           1.41139564892209     -2.65426263070189     -0.04996960783056
  C           3.15328435026243     -1.38058700138241     -3.59242599187399
  C           2.21496436353733     -0.44145667774662     -3.63341960659223
  C           0.85837800665019     -0.61982513890508     -3.01385558105703
  O           0.81094470469339     -1.61927066698568     -2.00868481660500
  O           4.40680202572853     -1.33424435757012     -4.08604741289677
  H           2.98304271148667     -2.33783601137959     -3.11522711983556
  H           2.36919755737382      0.51164913296329     -4.11163523369194
  H           0.13791745753983     -0.97733913227609     -3.75911443562412
  H           0.49031991673822      0.33637885722612     -2.62381521762509
  N           1.35791105565595     -3.59076097744592      0.60544799495766
  C           4.81088255209946     -0.14736076211195     -4.73042797795901
  H           5.84478731415152     -0.30623956164805     -5.03020251848897
  H           4.75232287295525      0.70932770194603     -4.05203591264733
  H           4.19865288459182      0.05027285174095     -5.61552901522546
