25
Coordinates from ORCA-job NEB E -43.806746145820
  C           0.60338692149272      0.47878389793128      0.68424184484904
  C          -0.75012496186433      0.06019775900346      0.77291660466474
  N           0.88430980730449      1.81629492761306      0.78938383795794
  H           1.37193938014757     -0.17313060392503      1.07990462181470
  C          -1.05576171700077     -1.36017683227049      1.18762457258937
  C           0.65200169905417     -0.02777070852651     -1.33410334148591
  C          -0.30320970985048      0.85592421789771     -1.85204925448772
  C          -1.64528881238006      0.64610451473996     -1.54810645381584
  O          -1.64811216418525      0.80299014791309      0.25885825116087
  C           2.07604861039290      0.07979588842349     -1.76690374187149
  H           0.36191385389574     -1.06718532459752     -1.22730232662021
  H           0.01834880451243      1.84246434499446     -2.15293445172164
  H          -2.02833240571603     -0.36403216946573     -1.54909060232379
  H          -2.36583264747664      1.39981968726261     -1.82295745266408
  H           0.13948895679484      2.40946794676095      0.44734173542749
  H           1.80461249156211      2.11775860538054      0.50791397697256
  C          -0.96219182207528     -1.50599378644803      2.70710589626235
  H          -0.35175140010984     -2.05301949957524      0.71898213338453
  H          -2.06662660584380     -1.60906121087423      0.86073836279294
  H           0.03372405917901     -1.24198961547082      3.05412566356447
  H          -1.17365793531500     -2.53110500226234      3.00174540746752
  H          -1.67947070534458     -0.84940327357886      3.19268256192745
  Cl          2.22595629789315     -0.58372362530289     -3.44592167991469
  Cl          2.69084840641848      1.74188602893238     -1.82040150799196
  Cl          3.16778159851445     -0.88489631455532     -0.74379465793863
