25
Coordinates from ORCA-job NEB_product E -43.840987911170
  C           3.03659243263237     -0.87016716031940     -0.86579977028430
  C           1.63723798555481     -1.22751481602961     -0.33391977973932
  N           3.18692829476886      0.56179402557234     -1.02852542563386
  H           3.80378705470107     -1.22882872358290     -0.17434408401617
  C           1.55827850608565     -2.29537688332205      0.73067294708153
  C           3.21378221689801     -1.59606345303111     -2.23166782416365
  C           2.45148737630631     -0.89310896092483     -3.31851988050040
  C           1.32887394491573     -1.35737441508622     -3.83166427175646
  O           0.67038813946528     -0.61763143445592     -0.71677484478513
  C           4.68594315252781     -1.72469151209746     -2.61529014231765
  H           2.82937958956723     -2.61567200179783     -2.12930377023485
  H           2.87417733446662      0.04350205875103     -3.64947993478173
  H           0.89282488195253     -2.28820094068768     -3.50828811859946
  H           0.79329965280038     -0.81931441993526     -4.59368318027806
  H           2.35375891277706      0.93569615015881     -1.47468380444556
  H           3.28599737280646      1.01341881740137     -0.12676713201773
  C           2.17567847385806     -3.63422428143013      0.33200284991788
  H           0.50685356736216     -2.43281985118905      0.99136268682744
  H           2.08046513124705     -1.90824302670674      1.61057455828308
  H           1.66934654820855     -4.04392936636898     -0.53886626614662
  H           2.06109174393036     -4.34088273607946      1.15040423988826
  H           3.23569238789892     -3.53839165837804      0.11332553479827
  Cl          4.80502341271764     -2.56437081210265     -4.18718009863447
  Cl          5.50319040159649     -0.16656973866058     -2.75023578814602
  Cl          5.56342148495458     -2.71333485969763     -1.42074870031501
