21
Coordinates from ORCA-job NEB_reactant E -54.970402281360
  C           2.23571403825535     -0.74334271901924      0.11124472668705
  C           1.44555450212695     -0.97780253544002      1.17751883386690
  N           2.20593497892244     -1.38951951139604     -1.15373501838313
  H           3.00652100333028      0.00914330553819      0.17696521813427
  C           1.60320320201078     -0.09904683193659      2.41159702776243
  C           2.33848064447281     -4.55378287471238     -0.35839411833225
  C           1.89568120319687     -3.81073657423192      0.64672451442779
  C           0.55358214265698     -3.15892226198902      0.69708326204754
  O           0.57346462258705     -1.94339616314449      1.43547115726404
  N           3.63661430881410     -5.17723241635587     -0.29353290817478
  H           1.79715550877913     -4.76253819234944     -1.26861518213965
  H           2.53614873898650     -3.66243893269024      1.51032562976655
  H          -0.14004284309402     -3.79186462873496      1.26200124697581
  H           0.15473218180676     -2.99854393925561     -0.31323142948059
  O           3.25762213817408     -1.47751798709121     -1.74548581114000
  O           1.13460012380615     -1.77913545362361     -1.58275446831446
  Cl          2.81187306412891     -0.90323647551126      3.46140959782264
  Cl          2.16278628704464      1.53215812724873      2.03380429558005
  Cl          0.06534471936899      0.01548840377128      3.28297221143114
  O           4.33414341718622     -4.93299901726317      0.66467848184386
  O           3.92788601743902     -5.90973332181312     -1.20834726764521
