20
Coordinates from ORCA-job NEB_product E -29.477165310940
  C           1.53006671797458     -0.91150211024673      1.47439867329570
  C           0.91834784220473      0.46229561514542      1.22858289029370
  C           1.11071343251153     -1.89182249733006      0.38417851345120
  H           2.62139173005706     -0.83365995490659      1.49674964812530
  N           1.65040112991228      1.48769750928988      1.72865898635233
  C           1.09576679412563     -1.39058454860313      2.88128557422094
  C          -0.37516633906983     -1.68696990217011      2.93091513301929
  C          -1.27515968133806     -0.86438473801627      3.43338538482190
  O          -0.13650415935467      0.64326741258480      0.66730923738108
  O           1.88057286501870     -2.52894229990432      3.18799760964860
  H           1.32495474706921     -0.58604660231324      3.60359973516631
  H          -0.66130851280335     -2.64340571993290      2.51640192171487
  H          -1.00170076964431      0.09318827726181      3.84551453103028
  H          -2.32429102303578     -1.10311078236153      3.43575654872100
  H           0.03800885406034     -1.82533583523120      0.22320781760829
  H           1.38057643858388     -2.90372689576124      0.67307316951624
  H           1.61239585773747     -1.64533352159013     -0.54849558875368
  H           1.30650899918419      2.42759895248553      1.62050110437188
  H           2.53594087198104      1.34690355829419      2.17985599895050
  H           1.50488420482538     -2.96302591669415      3.96092311106431
