19
Coordinates from ORCA-job NEB_product E -40.849632685680
  C           1.57090037763619      1.02454116022938      1.82770053382264
  C           1.46105381134711      1.50733312603634      0.39513219097272
  C           1.09967570420012     -0.43188258617273      1.92242114559598
  H           2.64564943371482      1.02796054668584      2.07717538573168
  H           1.39487193626626      2.60743009920268      0.30510772116810
  C           0.88623957782738      1.96301225228493      2.83399813676839
  C          -0.58183710171321      1.73049437693014      3.02613855040177
  C          -1.50954147719179      2.49686086694869      2.48598143852149
  O           1.47157884186505      0.79444744634490     -0.56118834199774
  N           1.59613111009721      1.86069085877615      4.16334567558741
  H           1.06072404701175      2.99784179865441      2.50873775710475
  H          -0.84636066726132      0.88309206396721      3.64115144661738
  H          -1.26719021910770      3.35013036016656      1.87306450815634
  H          -2.55508873637775      2.29445756166979      2.63037852066775
  F           1.19232530561579     -0.87549508037402      3.19670464315531
  F          -0.19752353928921     -0.56123256730009      1.56927801709868
  H           1.69182439453683     -1.09632349839099      1.27637939382550
  O           0.92759126790807      2.00358142307346      5.14804938384824
  O           2.78967593291440      1.69395979126737      4.12844389295363
