21
Coordinates from ORCA-job NEB E -37.244334754350
  C          -2.29181467858072      1.05389598120364     -2.64512370728472
  C           0.44463763189849     -2.70886383646327     -0.50469653485350
  C          -2.78836972282727     -0.24833387300922     -2.42185544787525
  H          -2.78669310311566      1.81618498919729     -2.03162384459246
  Cl          0.51447079189245     -1.41141516232651     -1.66260314883434
  C           0.93709694255964      0.92804764605820      0.67109027088851
  C           0.77772186972615     -0.22003294400025      1.32108820341488
  C          -0.39935406124931     -1.10886613436575      1.11617255152359
  O           0.01718424630225     -2.41772967862378      0.62771036775827
  O           1.94240600126761      1.81297362681090      0.78127830830829
  H           0.20569586980818      1.28486138054247     -0.04567713507428
  H           1.50780834096974     -0.58736646794801      2.01847956177002
  H          -1.10841292105118     -0.68113430639609      0.40612949423955
  H          -0.90094196997312     -1.32343001443018      2.06071527394764
  F          -3.81045351898958     -0.47274856603504     -1.48250160139996
  H          -1.94675177343028     -0.90118140440001     -2.14744623703570
  H          -3.15184949679783     -0.64752593525327     -3.38528371607796
  C           2.99930814932591      1.50564968379070      1.66360649615889
  H           3.67553487612991      2.35424484946379      1.62292235250099
  H           3.52917082174350      0.59834654151058      1.34890035438412
  H           2.63360570439112      1.37442362467380      2.68871813813342
