21
Coordinates from ORCA-job NEB_product E -37.457535396840
  C           2.86494662166277      0.78035456715692      1.06931285316614
  C           1.74597267771453      1.57680938659837      0.47681488402357
  C           2.52888531449519     -0.70459843334457      0.90593880795577
  H           3.79398987981225      1.00520906671940      0.53720395982074
  Cl          2.21779864703069      3.23688744805881      0.12057850741762
  C           3.08086810323439      1.26859173246780      2.56331800831581
  C           2.61447171245022      0.23442308619328      3.54948713793580
  C           1.52770671942433      0.38028888200992      4.28360090785682
  O           0.63334711587289      1.21531434616394      0.27396053602475
  O           4.39717029291138      1.71353694852992      2.75981812122843
  H           2.48821014474895      2.18020261549261      2.70550049561539
  H           3.22543710415666     -0.65235971664549      3.63329588396057
  H           0.90458471746019      1.25650825139200      4.21088716515648
  H           1.21465636410314     -0.37328171176263      4.98580910698536
  F           3.59748303423881     -1.48761956734867      1.25705873865235
  H           2.30575140988107     -0.92826139477229     -0.14199085010542
  H           1.68518525830585     -0.99836659031939      1.53595789823187
  C           5.41056158589573      0.73251239966241      2.85965487653764
  H           6.34971311959222      1.27206822170980      2.74947573773736
  H           5.33618765814515     -0.02434441073811      2.07560054779330
  H           5.39607251886359      0.24142487277599      3.83731667568965
