21
Coordinates from ORCA-job NEB_reactant E -37.453613856790
  C           1.59012157932317     -0.20382635410486      0.00290963142704
  C           2.36583656149939     -0.55250529645921      1.02777943301636
  C           0.16415199210107      0.21142122045984      0.16670993635434
  H           1.96962978903548     -0.26006199757095     -1.00289524456751
  Cl          4.00916518037211     -1.01620225756401      0.72301253889989
  C           3.54485859858799      1.66515457259018      3.00218187586903
  C           3.80904675683005      0.46259416016249      3.49862914349059
  C           2.86530913766593     -0.69859713339125      3.35973316975105
  O           1.93560947154303     -0.56334360862415      2.29583223105299
  O           4.30439861258593      2.77927554177600      3.04645355756640
  H           2.62489517263422      1.86758286654088      2.46895788414383
  H           4.71833161158558      0.24229641404932      4.03344202947294
  H           2.23110346153253     -0.79327144400929      4.24836518390221
  H           3.43704180926740     -1.62797383948520      3.24480696076581
  F          -0.67062401296420     -0.64571627935369     -0.52073838444049
  H          -0.01204994218681      1.20593577540966     -0.26066728953632
  H          -0.14165318515664      0.18068533070449      1.21504723144326
  C           5.55391961007649      2.69150541942414      3.69183017386620
  H           6.00812888670326      3.67644812267619      3.60298907782794
  H           6.19510184042981      1.94707523261483      3.20990389471811
  H           5.43627706853424      2.43622355415458      4.74951696497635
