19
Coordinates from ORCA-job NEB E -35.067718502200
  C           0.30121742710017     -0.64118239949340      0.16526834084002
  C           0.08603306419843     -1.75049205068726      0.91862733542986
  C           1.20132912798051      1.33525282169616      1.46235193657571
  H           0.71172087764496      0.43604485060639      0.90792873892168
  C           0.37244052114184     -1.73707084615946      2.32916875772536
  C           0.07075975921530     -0.20378197565231     -1.22335637513337
  C          -1.22275381159171      0.57554603460153     -1.37739426712112
  C          -2.38219610524400     -0.01917175672878     -1.57955804460650
  O          -0.36247731291556     -2.71973235806677      0.26839558284399
  C           1.19004785815355      0.56263400447041     -1.73375682702861
  H           0.01192058311103     -1.13857522329203     -1.80140884384794
  H          -1.14245661899338      1.64900162263608     -1.27099097735629
  H          -2.46068100899149     -1.08966744283175     -1.67581148994012
  H          -3.29833706625360      0.54070452494108     -1.65068586728944
  F           2.46925368207902      0.99867561027446      1.71453831974134
  H           0.65841285328898      1.47306792272787      2.39930412061894
  H           1.17256596666024      2.20276486298872      0.80050237200467
  N           0.58169766832887     -1.70014753140423      3.45363916451772
  N           2.04150253508686      1.22612932937327     -2.10676197689589
