19
Coordinates from ORCA-job NEB_product E -35.194246760710
  C           1.58334382159922     -0.46388020758154     -1.65347137661771
  C           2.04482149145922     -1.90425491294575     -1.44021238216164
  C           2.54109817245463      0.51730448590125     -0.96395577641003
  H           0.60829443646778     -0.37742041556306     -1.15359290767599
  C           2.44066943874042     -2.16797773706024     -0.06540985359750
  C           1.37165283393674     -0.18474722479046     -3.15892013368042
  C           0.34926918342488      0.90070026034964     -3.38213446210954
  C          -0.74220549181935      0.73213941792853     -4.10269100872124
  O           2.04167224555141     -2.75403478453874     -2.28706599846288
  C           2.60345806534805      0.21022184245952     -3.81375093945219
  H           1.03329685497512     -1.11365399376305     -3.63696498918360
  H           0.57057705383179      1.85349472025613     -2.92006628546499
  H          -0.97196028126970     -0.20627824820150     -4.58043034575470
  H          -1.45155097667741      1.52821909215427     -4.24772250467510
  F           3.84246236163389      0.18643909430282     -1.22314556952896
  H           2.42178110789340      0.48831771639038      0.12505509610953
  H           2.39340082021443      1.53885152528139     -1.32911091997700
  N           2.71521148686711     -2.37477979786577      1.02553510169151
  N           3.54450737536837      0.55873916728618     -4.35794474432755
