17
Coordinates from ORCA-job NEB_reactant E -38.292416709660
  C           2.13954055788284     -0.06387970564171     -0.42591819163330
  C           1.21585855571633      0.29874339501304     -1.30626371794823
  F           3.23987017001320      0.65727113685836     -0.10368616446293
  H           2.09557520710459     -0.99303308247814      0.11635517365034
  H           0.38730134744023     -0.37621538709364     -1.46872666228230
  C           4.10874933261170      2.81610184512846     -3.43053443228661
  C           3.32016129890887      1.97293177311639     -2.78342175458439
  C           2.08372291558093      2.39350377403532     -2.04831484180730
  O           1.07441530669731      1.40154486910708     -2.07095811094160
  C           5.35812149568065      2.45286519740759     -4.14550450689665
  H           3.88852803263658      3.87403557781691     -3.46865705592112
  H           3.54708634058590      0.91717138282932     -2.75016389375491
  H           1.63205695044180      3.26931998164018     -2.52100728623485
  H           2.34595224826037      2.65402738609742     -1.01430773416367
  Cl          5.23450026840878      2.97723574797350     -5.85242955215673
  Cl          6.73731530217037      3.32186929851786     -3.40323972083344
  Cl          5.72074466985954      0.72450680967207     -4.12522154774231
