18
Coordinates from ORCA-job NEB_product E -37.780949395320
  C           1.68451927269707     -1.97657490773388     -0.14214124696468
  C           1.18047250474075     -1.01593215828770      0.88645213334806
  C           1.38965165242646     -1.39599442623929     -1.53112839021772
  H           2.76511521685172     -2.12939318249131     -0.05246761306652
  I           2.10734511288648     -1.29223080196202      2.81795753362613
  C           1.02464656462969     -3.37178714320602      0.06925532107373
  C          -0.40313950915259     -3.37076951457926     -0.40328477177564
  C          -1.43484910034486     -3.15649906296016      0.39081748483433
  O           0.33927291400087     -0.19765444199461      0.75435789299060
  O           1.83505952353805     -4.29355846080677     -0.61134405054092
  H           1.05150764024387     -3.58625105954638      1.15289005506137
  H          -0.53083797383393     -3.56192179703854     -1.46030899485969
  H          -1.31331045130383     -2.97084554985070      1.44580113342899
  H          -2.44441272670601     -3.15574104181242      0.01964310589559
  F           2.20590574828815     -0.33847368415900     -1.75286382581237
  F           1.64245496123817     -2.28100042164320     -2.51236007888017
  H           0.35023342834612     -1.04823252311602     -1.63586587253137
  H           1.34836522145384     -5.11213982257272     -0.75220981560972
