16
Coordinates from ORCA-job NEB E -26.416131749100
  C           1.12417694206419     -0.78871018569141     -0.73566217419584
  C           0.65176707163992      0.18222476291735     -1.57466845150874
  H           2.00982886067310     -0.57100841848473     -0.16823077765881
  H           0.94898455549556     -1.82173948120680     -0.98495364164860
  F          -0.26948127364458     -0.26379312947705     -2.51388061684043
  C          -0.20274109967377     -0.39402194937644      0.98855360700882
  C          -0.85147268011558      0.76573535845881      0.57034455569246
  C          -0.12116805625939      1.88832079763541      0.21096864966521
  O           0.68118391454093      1.41354995216686     -1.39709583043673
  N          -0.90300168373185     -1.54376471107552      1.22170416322468
  H           0.69314810405837     -0.29607970055080      1.58564260032569
  H          -1.84921838738927      0.65399107612386      0.16474018811835
  H           0.81703066967010      2.08450810943682      0.70801244895845
  H          -0.63875882049404      2.76169548584874     -0.15021913516011
  H          -1.71367561742290     -1.69611279787468      0.64128211343447
  H          -0.37660249941078     -2.37479516885042      1.43346230102110
