16
Coordinates from ORCA-job NEB_reactant E -26.447408374640
  C           2.09309835143605      0.19236972229157     -0.32445420997471
  C           1.24919388317127      0.98858687906928      0.30911747193998
  H           3.04498315724426     -0.03836706817335      0.10835599177489
  H           1.84241490403054     -0.21191457224316     -1.28464857106153
  F           0.04283604217273      1.26704329534729     -0.24369992198756
  C          -0.44644694045960      0.61158753568250      4.01653029859755
  C          -0.49971562486296      1.02731375940208      2.75224019980428
  C           0.37307949139348      2.11436101384492      2.21604301032142
  O           1.48925138460224      1.60056348623614      1.46706655657300
  N          -1.27871472748885     -0.33177994170732      4.57354250271832
  H           0.22797330333472      1.08147943845000      4.72014157198775
  H          -1.16856594445243      0.55347309680449      2.04788640976727
  H           0.84369734305249      2.67535941056876      3.02501495282789
  H          -0.20062711618968      2.80016838149091      1.58148751448282
  H          -1.77984166541943     -0.91002632696829      3.91644465163904
  H          -0.92551584156483     -0.82851811009583      5.37453157058959
