17
Coordinates from ORCA-job NEB E -25.215079848520
  C           0.86190899211230     -0.06467670488467     -0.77265895227726
  C          -0.53715914538633     -0.40215739571563     -0.79512670497681
  H           1.52892225183133     -0.91484776515777     -0.63572180522446
  H           1.16191849165310      0.50285929499189     -1.65040928464227
  C          -1.48505248012885      0.22544752703682     -1.76024024323342
  C           1.05825577267247      0.82809805578530      0.56797882559240
  C           0.60996692981161      0.06936457148074      1.69124914295793
  C          -0.49411876671235     -0.90352707790166      1.53094481509478
  O          -1.08973806520455     -1.03302691279241      0.24137073672553
  I           3.20852513150751      1.43712222286262      0.73973665086975
  H           0.58413731385397      1.78113125247727      0.35450251959319
  H           1.30329492110649     -0.18365923479166      2.47582811432148
  H          -1.35813629477969     -0.61895381239672      2.14657285541620
  H          -0.17933107454914     -1.89869043347076      1.87221342994538
  H          -1.49835154852535      1.31114299642463     -1.62644063455024
  H          -2.48785254279316     -0.15738542054294     -1.59261144127218
  H          -1.18718988646934      0.02175883659496     -2.78718802433999
