17
Coordinates from ORCA-job NEB_product E -25.272188614920
  C           2.89240003447794      2.07686152079421      0.40076148491746
  C           1.53077957641126      1.44332106608056      0.13762701305770
  H           3.66512484050600      1.31642442676130      0.26868007255702
  H           3.06999570166049      2.90075408762733     -0.29122439170394
  C           0.52880727373239      2.36212869572370     -0.50516161621978
  C           2.90972892506049      2.57292871471839      1.84106186602087
  C           2.77205077679799      1.47527127534231      2.82822176092447
  C           1.90763067761063      1.49641082855964      3.82698152098224
  O           1.28979789336623      0.30511582943312      0.44057360450354
  I           4.81473205444116      3.61849719557229      2.21498636170344
  H           2.15400660367609      3.34266525579232      2.00108598950348
  H           3.43232796975209      0.63132747197122      2.68434372097876
  H           1.24202333752377      2.32934824264902      3.98831984827658
  H           1.82607055081857      0.67805813593804      4.51996979510538
  H           0.50685602511465      3.32077581414246      0.00807774565113
  H          -0.45993536029460      1.91163240715925     -0.49610838384804
  H           0.82790311934484      2.54037903173484     -1.53719639241030
