17
Coordinates from ORCA-job NEB_reactant E -25.257280648280
  C           2.68617676767134      1.25026405212360      0.18996586380360
  C           1.52776324466792      1.79334141383900      0.53774153464111
  H           3.40160414113337      0.86657015285751      0.89387584919704
  H           2.95771205340926      1.18170392542805     -0.84618657006263
  C           0.53845785671898      2.34680235224695     -0.44351369087704
  C           3.32994813267140      3.34190051813512      2.74432592277872
  C           3.01570939850244      2.17208502057296      3.26156691797575
  C           1.78810019087733      1.39311746556032      2.87775955831152
  O           1.04709769094114      1.93087221569863      1.81422875055582
  I           5.04619822551130      4.42007232130579      3.30162148325797
  H           2.73904094373800      3.83751023640114      1.99410787083470
  H           3.62698606692620      1.69983406981296      4.01718754352291
  H           1.09846282461080      1.38524342220369      3.73087210274503
  H           2.07355925153442      0.35240604130643      2.66447805465055
  H           0.31686554703418      3.38390029232926     -0.19872630382529
  H          -0.39320227241520      1.78724029342153     -0.38204584731965
  H           0.92771993646715      2.28883620675705     -1.45425904019011
