22
Coordinates from ORCA-job R E -44.740265628000
  C          -1.37045700073142      0.06079929377619     -2.79249784960896
  C          -0.63031910382047     -2.69191532043386     -1.78956982245748
  C          -1.80326520803499     -2.08701753771665     -1.64101378951717
  C          -2.20054110100606     -0.85101976934714     -2.29082384157775
  C          -0.88187661803186      0.88234627899972      0.40654075589662
  C           0.26825427249123      0.24023257052548      0.48956979733296
  H          -2.56093055346967     -2.53681250410158     -1.01248058724102
  H          -3.26818210909369     -0.67244597046719     -2.33999488036228
  C          -1.85201596282869      1.32771622913800     -3.41772591951289
  H          -0.40408841829906     -3.61228919211297     -1.28008785912365
  H          -0.29793001709638     -0.04208221866115     -2.74013832600438
  H           0.13677498647464     -2.30172164048084     -2.43474911476896
  H          -1.76183967616912      0.49292454241618      0.88688735115149
  H           0.36352399644408     -0.68686300736236      1.03721443883567
  H          -0.99178607872696      1.80550494003375     -0.13515281883690
  C           1.54980298510246      0.68761236739078     -0.12028723488304
  F          -1.69986316504069      2.38026461085658     -2.55921133877678
  F          -1.12198775463366      1.64407280827873     -4.51467347885786
  H          -2.91330865251703      1.30324728472697     -3.71172101248871
  Cl          1.40936669651943      2.14076013202219     -1.11730896597936
  Cl          2.73458124699021      1.00738564550776      1.18682331170658
  Cl          2.20930723547772     -0.62645954298858     -1.13610881492613
