22
Coordinates from ORCA-job TS E -44.727138644400
  C          -0.78292403394180      0.41052265151878     -1.11502616137912
  C           0.52626651993340     -1.94263688377235     -0.11161703054829
  C          -0.80866840156280     -1.88475530322734     -0.31493657545824
  C          -1.45440900717455     -0.74437892167952     -0.84412463057490
  C          -0.13986686511857      0.89743113003565      0.95172266828601
  C           0.70345381362270     -0.06158763920647      1.41853016767176
  H          -1.44192995226255     -2.66591977221684      0.08210713461639
  H          -2.53627313325925     -0.73174002179267     -0.83578274132465
  C          -1.53188317494779      1.61464957570839     -1.60341097731958
  H           0.96005895245176     -2.77924302924357      0.40907472260255
  H           0.26007523004761      0.40554671575188     -1.38836056922367
  H           1.21275876343823     -1.32334249044178     -0.65634105745585
  H          -1.15856103042257      0.91337462142040      1.29447785170021
  H           0.36755366703480     -0.81881473620868      2.10708979588443
  H           0.25371066723690      1.81719320764854      0.55581043323574
  C           2.17967839351439      0.12509017871846      1.36747986512366
  F          -0.82881963487764      2.75550737684254     -1.39943305366125
  F          -1.72599178218124      1.54096938089764     -2.95041149327466
  H          -2.52253458200034      1.74269197839095     -1.13839990586637
  Cl          2.74439310098948      0.78091794626032     -0.18552224931356
  Cl          2.65438547123767      1.31735084756406      2.64461708978053
  Cl          3.06952701824214     -1.36882681296840      1.71245671649886
