17
Coordinates from ORCA-job NEB E -40.147769707990
  C           1.03595383842189      0.78876401858166      0.34420014007233
  C          -0.35785647380747      0.85268389147328      0.48952415796726
  I           1.92140048710738      2.19608529238622     -0.99091318051081
  H           1.64183873716943      0.71292131321259      1.24078970318440
  C          -1.00690751408228      0.52101323663133      1.79313919770570
  C           1.24156736091922     -0.89227087075497     -0.53762340210363
  C           0.37169552889061     -0.80070046096726     -1.62299730872878
  C          -1.01581919796072     -0.55277755546338     -1.36660307722342
  O          -1.11061621529101      0.81161816289134     -0.57422208594077
  F           2.55455668269217     -0.96226339304513     -0.80954580598896
  H           1.01125868330201     -1.52816340583545      0.31564019634406
  H           0.79287430956229     -0.49565857290795     -2.57008190325325
  H          -1.50266165855217     -1.25248227544487     -0.68810736209102
  H          -1.62057919639096     -0.35703514158153     -2.24504165036198
  Br         -0.21402137298048      1.49896056330492      3.27247052591595
  Br         -2.89764711058140      0.91452413428384      1.69269431730888
  Br         -0.84503688841852     -1.45521893676462      2.25667753770403
