17
Coordinates from ORCA-job NEB_reactant E -40.175719275730
  C           1.76658636302152     -0.17846996540186      0.05257361770349
  C           1.63396575945158     -1.43758958171854      0.45778103872515
  I           2.13460091485181      0.57504296758246     -1.87226591947070
  H           1.64751958501828      0.62584714806710      0.75636062908852
  C           1.29300536929525     -1.77289903602744      1.88755794223719
  C           2.24699081871263     -4.97997112838436     -2.53575500925285
  C           2.71942711166257     -4.23897508753898     -1.55165483268993
  C           2.40961010966301     -2.78342701103777     -1.41539375814105
  O           1.73875265514252     -2.62561927713354     -0.17025654297169
  F           2.54508539297048     -6.27616126877790     -2.64433866968965
  H           1.61488113667021     -4.63804758668826     -3.34361025171874
  H           3.33682246499010     -4.67719952618156     -0.78189666911976
  H           1.77030933100817     -2.44772946087122     -2.23788559756284
  H           3.34112790598151     -2.20505222131951     -1.40848921300215
  Br          1.00828035830791     -0.28504954606440      3.07726938236465
  Br         -0.32997717915163     -2.86706712070460      1.88369458460608
  Br          2.75501190240407     -2.86003229779960      2.60860926889428
