23
Coordinates from ORCA-job NEB_reactant E -40.400678459670
  C           1.67013498921248      0.18420706209582     -0.35853511481546
  C           1.36118600651090      0.88326607603034     -1.46654307771410
  C           2.20159008312583      0.56012341309732      0.96630676925644
  H           1.49854137610993     -0.87851537726147     -0.43821044065608
  C           0.81797541013887      0.11459568075907     -2.65181782127407
  C           3.80516290272473      4.74898614439875     -1.98908872593847
  C           2.59700937101201      4.22068299442129     -1.99750145804985
  C           2.14305839359495      3.15860599263013     -1.04174798238657
  O           1.44973366749169      2.17022872790144     -1.79813427969154
  H           4.09064202399557      5.52457752893812     -2.67836861854724
  H           4.55534691135460      4.43600152004716     -1.28157339932628
  H           1.84866193883814      4.53262028053873     -2.71202380099580
  H           1.45027406467249      3.59870029337670     -0.31183626370189
  H           2.99633526421523      2.72875856957886     -0.51660133452644
  Cl          1.32859522504046      1.91258389659303      1.74390528418530
  Cl          2.06457113399718     -0.83179566401121      2.07323892230458
  Cl          3.96260904509013      0.99048057075610      0.93552699521874
  C           1.96775497658725     -0.35773511877844     -3.54188615729198
  H           0.17323138679402      0.78413788244785     -3.22131443525148
  H           0.23230893480585     -0.73887420467659     -2.31428031973788
  H           2.55135132083599      0.49276581297101     -3.88462822981996
  H           1.57808119255772     -0.88403949158997     -4.40924874484390
  H           2.62294438129398     -1.02836259026405     -2.99163776639606
