14
Coordinates from ORCA-job NEB E -26.263017914310
  C           0.16344806586730     -2.47442653293066     -0.69013510448983
  C          -0.45463006369726     -1.38234746767228     -0.37879315609172
  Br         -0.16344636544526     -5.32651072429693      0.86576587727708
  H          -0.33309120537936     -4.77696071396019     -0.40681272596767
  Cl         -1.82886845483394     -2.53933064588391     -0.78057682555671
  C           0.60510713882407      3.14808140843078      0.53282409426303
  C          -0.15950761541662      2.13807209161621      0.16570354060139
  C           0.35496349729801      0.76021414743762     -0.12529268985161
  O          -0.73692058195690     -0.14805289610019     -0.02674634077518
  H           0.19397454997179      4.12628591685137      0.70383563863570
  H           1.66510261447224      3.02376332970999      0.67807810169036
  H          -1.22432831622123      2.25567351767355      0.02436447397245
  H           1.14445445639635      0.47308155358585      0.58040463090111
  H           0.77374228012081      0.72245701553877     -1.14261951460841
