14
Coordinates from ORCA-job NEB_product E -26.426958798980
  C           1.76560071269097      1.90270005191697     -0.86052975854651
  C           0.45621133179300      1.72401063478633     -1.57289649367967
  Br          1.63573950335508      0.68692394409675      0.68198433063943
  H           2.60052884928536      1.52460412620075     -1.45204735055789
  Cl          0.44517526080391      0.28647286696777     -2.59629619703952
  C           1.98358109070344      3.33699263348673     -0.39148947987875
  C           3.29205650653547      3.47648019940828      0.32455802742567
  C           3.40138882633718      3.78073993939668      1.60312485544318
  O          -0.50186470565917      2.41380292420019     -1.48338688327019
  H           1.97164267540026      3.97757987924759     -1.27916656689462
  H           1.15816095411444      3.63690568532481      0.25674791981895
  H           4.17199892570734      3.28794322640511     -0.27667645541262
  H           2.53683036955497      3.96405197882932      2.21926598563149
  H           4.35874969937774      3.85979190973272      2.08760806632105
