20
Coordinates from ORCA-job NEB E -33.537483928940
  C          -0.54625484632858      1.09556078568543     -1.12696793626920
  C          -1.89453793898590      0.75749914027356     -1.11749117192827
  F           0.25883555490607      0.43165049964447     -1.97788190488212
  H          -0.25306225145339      2.13741739602162     -1.04477586235983
  F          -2.67960999979544      1.70259472642429     -0.47956285429825
  C          -0.02687042276377      0.23500156388062      0.63089956499069
  C          -0.48892694523568     -1.05140299784808      0.39171193810209
  C          -1.88448539575310     -1.26672876811241      0.26530182973100
  O          -2.33106687841157     -0.42500880956485     -1.11637857540195
  C           1.43594598460316      0.55807573929647      0.82077988779574
  H          -0.67211265849012      0.88280516854270      1.21989467705777
  H           0.17505640126525     -1.77288214718842     -0.05795663109308
  H          -2.53062876695062     -0.77126155479489      0.98341552344806
  H          -2.21367073636254     -2.26440382690287      0.00852995095298
  C           2.41233017843610     -0.42042275608266      0.17964937087706
  H           1.61442925013143      0.58477099995082      1.90106411881618
  H           1.63475671112263      1.56531470737910      0.44802823613670
  H           2.33809344546791     -1.40094735203276      0.64284280315881
  H           3.42924625981585     -0.05953234952881      0.31406229631671
  H           2.22253305478229     -0.51810016504333     -0.88516526115106
