20
Coordinates from ORCA-job NEB_product E -33.583317518620
  C           3.34911932850047      0.43359389374095      1.68836970293205
  C           1.88293320072065      0.49743226214826      1.35055813557162
  F           4.00101428505583     -0.18263788772157      0.65261469226918
  H           3.75284362868796      1.45322824896988      1.76222811177119
  F           1.25889251430433      1.34420524963599      2.22658836112851
  C           3.53248138905690     -0.32167007646993      3.02519448701794
  C           3.12919350148060     -1.75976733616480      2.85769837821323
  C           2.31530513595892     -2.39009273500580      3.68189116795954
  O           1.25987761828402     -0.05156223648747      0.52098698273455
  C           4.96299651824411     -0.18006598580760      3.57952838396584
  H           2.85977439580374      0.16019450939334      3.74420554476334
  H           3.55326639529702     -2.26408384193440      2.00159664206554
  H           1.87698917274430     -1.89991767092557      4.53642017639283
  H           2.05389559866024     -3.42404725261165      3.53958493966821
  C           6.03974280302645     -0.89737787259869      2.77459469579311
  H           4.95447297850089     -0.58177134664886      4.59518733717881
  H           5.20479533492877      0.88381081563505      3.64623725531709
  H           5.85954648097218     -1.96872170281377      2.76065174194181
  H           7.01079484292792     -0.72228904377536      3.23208430718267
  H           6.07686487684473     -0.53855999055799      1.75057895613294
