20
Coordinates from ORCA-job NEB_reactant E -33.561391321340
  C           1.52004570468355      0.49803001463794      0.24027488950575
  C           1.05364926648318      0.53851714657389      1.48513135426562
  F           2.37480227387584     -0.44581360094918     -0.21226802523924
  H           1.25589914981084      1.23186510158073     -0.50066931327380
  F           0.20873202978231      1.54803397963576      1.76241533987756
  C           4.35105520290375     -0.87968406260243      3.72813176851342
  C           3.57737420843156     -0.73030815142021      2.66589847824236
  C           2.17925214194590     -1.26281488711415      2.57341948259167
  O           1.19969789858858     -0.21964850820450      2.56762200337876
  C           5.75068034641174     -0.37085737888115      3.83921072674745
  H           3.98660542665378     -1.42732383070986      4.58825316084692
  H           3.93191446608739     -0.18724207660783      1.80117207510306
  H           1.93087260678692     -1.84798122171580      3.46121500570488
  H           2.06171630448338     -1.88942874511731      1.68239375971358
  C           6.73315514995229     -1.51731686763332      4.07821969086708
  H           5.80740225867899      0.32630646099328      4.67990377547952
  H           6.02449133799939      0.16770109952176      2.93074475328404
  H           6.48145862618699     -2.05269169725740      4.99090176265263
  H           7.74643680208501     -1.13457127837470      4.17108344587534
  H           6.70245879816860     -2.21897149635554      3.24794586586340
