22
Coordinates from ORCA-job NEB E -56.035778103250
  C          -0.05232127435803      0.05092178840950      0.41132096709117
  C           0.81424463777836      0.15936002826677      1.51324697547984
  N           1.14540375022696      2.42203381166676     -2.21696472715657
  H          -0.56036856620925      0.90684522158732      0.00435378284296
  C           1.22132619663443      1.58410925409488      1.95103262961208
  C          -0.30698684267612     -1.27941785851897     -0.19444897797654
  C          -1.77813272629876     -1.63617051640106     -0.15844688882344
  C          -2.54297864479750     -1.44186668985610      0.90134972393720
  O           1.28401776758911     -0.79367942271961      2.12865246165308
  C           0.17706025411647     -1.28901818643188     -1.65504773644241
  H           0.28200484858153     -2.02967464804186      0.35120296383084
  H          -2.18088803869117     -2.06096067430847     -1.06642593174700
  H          -2.15698173868003     -1.01751253272504      1.81342076870358
  H          -3.58036332871336     -1.72828257935979      0.90502620957259
  O           1.33020127067417      2.23593443118394     -3.35999563748286
  O           1.58862863833955      3.09922627680854     -1.37052899062680
  Cl          0.07707520393205      2.84814054186862      1.48849318140984
  Cl          1.44044582908101      1.63988422062332      3.70502619346573
  Cl          2.78397781740543      1.90540375119345      1.14306394859656
  F          -0.47758909512055     -0.34887304968800     -2.38836807406220
  F           1.48565395602630     -0.97452894124220     -1.74963771333942
  H           0.00657008515943     -2.25187422641012     -2.15632512853824
