38
Coordinates from ORCA-job R E -43.703134480480
  C          -1.79466427673781     -0.36458900664440     -2.73208136234322
  C           0.11371370332391     -2.59294242882332     -2.03067107392233
  C          -1.17138351362038     -2.72039629064120     -2.36184588178361
  C          -2.09982024046718     -1.67644171558145     -2.72184338290759
  C          -0.16707259174955      2.11090662347877     -0.16002255489591
  C           0.16133446033978      0.83596665365650      0.03517236634356
  H          -1.59586236825924     -3.71823445075864     -2.37891738629896
  H          -3.08862018603739     -2.01871758121044     -2.99050427236734
  N          -2.60804371535586      0.70204506349968     -2.98753687204901
  H           0.71302783541122     -3.45271264942676     -1.78397558005646
  H          -0.79081409298375     -0.07132851639706     -2.46050802305920
  H           0.61298829356963     -1.64087801509975     -1.99589625860691
  H          -1.19800152633509      2.41071202059357     -0.12403133661700
  H          -0.61627531789279      0.11108651378301      0.23883578438267
  H           0.55011130004166      2.88699737382715     -0.35749649414563
  N           1.41170817315338      0.26774958067382     -0.06371547708301
  C          -3.96357670297112      0.48948117115591     -3.46368102062685
  C          -4.88828839233696      1.64845498893340     -3.09173906274114
  C          -4.00360533121446      0.22622551681981     -4.97378233557920
  C          -1.98338847603793      1.97245362555126     -3.26583031653444
  H          -4.33086361176871     -0.40035790302377     -2.94267620423938
  H          -4.69019535373409      2.52843643107161     -3.69843052970001
  H          -4.77240790755606      1.90436199812867     -2.04137947597858
  H          -5.91992948254746      1.34958821498747     -3.26034096797177
  H          -3.70006754397262      1.11279232821790     -5.52580250225767
  H          -5.01089152703317     -0.04178696040536     -5.28175415990091
  H          -3.33109839693750     -0.58996634824867     -5.22687773685240
  H          -1.01807465492720      2.01148599439940     -2.76454231659123
  H          -2.59491119399810      2.78761007225515     -2.88099624740774
  H          -1.82606027463910      2.12966868234618     -4.33983644378626
  C           1.65567784034158     -0.93499481938826      0.69595053213773
  C           2.55300490912951      1.13755672392801     -0.20475673402578
  H           0.77700727467697     -1.57610205991563      0.65380202827465
  H           1.88966981451916     -0.72359626430440      1.74877426096931
  H           2.49748326167435     -1.47379343158621      0.25823777370358
  H           2.73374670352301      1.74486012640253      0.69236103036957
  H           2.39580625117623      1.80465925587104     -1.05157321625106
  H           3.43776685823313      0.53326948187446     -0.40156854960045
