38
Coordinates from ORCA-job TS E -43.682191052860
  C          -0.16076076560294     -0.39976722799638     -0.89600836632769
  C           1.54846292817045     -2.23926824391876      0.48135123457090
  C           0.34206352362608     -2.60570800760270     -0.03846818534724
  C          -0.49218110213146     -1.73698080893327     -0.74784369552393
  C          -0.07321804595826      0.12972641513281      1.22651507531507
  C           0.90992220815929     -0.55027354299958      1.90976876215044
  H          -0.06976392551836     -3.56755012011824      0.24177142385434
  H          -1.48798826372866     -2.07969491595066     -0.98605314089832
  N          -0.96149442622487      0.53192873448789     -1.51383936555559
  H           2.10035936428618     -2.94246851630106      1.08473701207364
  H           0.88686561196872     -0.14911846341025     -0.96485283576769
  H           2.13652124092134     -1.46261639249613      0.02810986043699
  H          -1.09174610259042     -0.16912904140673      1.39358574824479
  H           0.61661146264037     -1.36415770083199      2.55462047586542
  H           0.07010813590904      1.15716310757752      0.94498502776581
  N           2.14353802502903     -0.01123886342268      2.24917676282216
  C          -2.40696706957527      0.47821005731017     -1.38753178175122
  C          -2.99025008898876      1.69070284767937     -0.65497208061771
  C          -3.05536858042847      0.31175455012245     -2.76539000049017
  C          -0.37368224122789      1.79765118347481     -1.87083846507334
  H          -2.63738168550488     -0.40784720928507     -0.79030771042530
  H          -2.89023770859884      2.59867352382307     -1.24416805680884
  H          -2.49161413770564      1.83285970331811      0.30069476501544
  H          -4.04788435834029      1.52295383461493     -0.46710436306423
  H          -2.88661977676811      1.19085349074667     -3.38282818859444
  H          -4.12762191928493      0.16725494623715     -2.66120547537029
  H          -2.63200679423432     -0.55179403839421     -3.27180988428517
  H           0.63711208317544      1.63620256469044     -2.24429165008360
  H          -0.32138332987932      2.50046513519682     -1.02811576605482
  H          -0.95590471714453      2.26022646213094     -2.66665172976395
  C           3.08267657752951     -0.86010686885517      2.93862854319593
  C           2.78795088372609      0.93605252633774      1.37556565424595
  H           2.54969925996226     -1.54517045492803      3.59408406396694
  H           3.74151811412229     -0.23763630761022      3.54801827263619
  H           3.70546417417174     -1.44547184281289      2.24894581489865
  H           2.05658181276711      1.61690184331419      0.95056391674339
  H           3.33319522273061      0.44783422070485      0.55463544685802
  H           3.50542441054067      1.51858342037410      1.95652288114345
