19
Coordinates from ORCA-job NEB_reactant E -34.762087506720
  C           1.96120187923139     -0.45362669301483      0.03292522525576
  C           1.57265773392161     -0.79125087959035      1.26419328583715
  C           1.35575739150635     -0.96033754267137     -1.23041162898520
  H           2.78593458834499      0.23405457901821     -0.04412260611342
  O           2.15126120661104     -0.21162390201281      2.33848567642223
  C           2.95679674485810     -4.05363130222237      0.98536752497959
  C           1.95769355370555     -3.62469236741300      1.75399854296798
  C           0.70517611370859     -3.01972003689975      1.20123676351581
  O           0.56881011537145     -1.65432381765840      1.60814608759437
  C           4.13796997017166     -4.59941673984863      1.52583030156907
  H           2.90892765192317     -4.00749890146770     -0.09495467058565
  H           2.03822270626436     -3.65857031539589      2.83310348409340
  H          -0.17771608637052     -3.50879395937831      1.62370137982954
  H           0.68416170710951     -3.11677807368472      0.11399796715728
  F           1.94447096050902     -2.15245069816851     -1.64362993576651
  H           1.51427247337396     -0.25374669321288     -2.04855408376315
  H           0.28741113288054     -1.17358426882902     -1.12026323459110
  H           1.70441068112572     -0.52004022247908      3.13870864699057
  N           5.09347947575351     -5.05756816507058      1.96324127359227
