19
Coordinates from ORCA-job NEB_product E -34.794642553280
  C           2.52882503276996     -1.47688827371954      0.34919575732597
  C           2.16303805266331     -0.70317015017290      1.60334130369706
  C           1.51582616505091     -1.19099040271126     -0.75774544598894
  H           3.52909727581234     -1.16680753435178      0.03210253423355
  O           3.24272367974995     -0.19357887746535      2.18877600879496
  C           2.56008335148858     -2.99642771372365      0.66855925013302
  C           1.20513805747360     -3.54480276706766      1.03982850480924
  C           0.67113997493210     -4.60002015333089      0.45573605871145
  O           1.04904403527175     -0.57065668126143      2.03118548287113
  C           3.46733376034120     -3.24210806119436      1.76886566079143
  H           2.94068190290830     -3.52266457343198     -0.21530801548101
  H           0.69171889674454     -3.01900143758288      1.83255371443239
  H          -0.29472743445439     -4.97539833483490      0.74589641842027
  H           1.17336718487544     -5.13175695756779     -0.33636797978744
  F           1.87227888151923     -1.86293964150331     -1.89832364797500
  H           1.49440596856872     -0.12570256333865     -1.00705591843179
  H           0.51614276199615     -1.53353536041544     -0.47525283715507
  H           3.01852380344525      0.25466074049065      3.02070551515802
  N           4.16455864884308     -3.44691125681686      2.65050763544076
