17
Coordinates from ORCA-job NEB E -41.390468529190
  C           0.98190654470464      0.16328378141871      0.50863061154573
  C           0.08453965096907     -0.56039593958466      1.30745871123560
  C           0.89582689946781      1.67027297113507      0.55517040360953
  H           2.02305461057740     -0.14630388400416      0.53834323450479
  I           0.80654765600663     -2.49302740671916      1.96518477164932
  C           0.34975283642782     -0.52817498356529     -1.24693026890490
  C          -1.02793151668746     -0.30189591533460     -1.20760506170768
  C          -1.79464012481219     -0.95065682181537     -0.21509040936814
  O          -1.16037585467715     -0.41156610644904      1.25770848329269
  Cl          1.26977697235248      0.24663426282927     -2.49399472762866
  H           0.72420027300858     -1.53131614574820     -1.06518270046407
  H          -1.42118695170667      0.58440781616407     -1.67949941284553
  H          -1.62320564830412     -2.01182186108609     -0.05743992912813
  H          -2.83435453635468     -0.66539149952376     -0.12898277606499
  Cl         -0.68897896804557      2.35214914320106      0.19877310892567
  Cl          1.30789717300269      2.14791467191075      2.25270663523523
  Cl          2.10717098407073      2.43588791717138     -0.48925067388646
