17
Coordinates from ORCA-job NEB_product E -41.432857570800
  C           1.65056150038990     -0.54168709702123     -1.52175203816439
  C           0.92870202888253     -1.15398015210139     -0.34355673039390
  C           1.33732244857360      0.95536242354702     -1.60510488314802
  H           2.73103421801835     -0.62820900571156     -1.36181033480660
  I           1.99052839122212     -2.87417723839492      0.43423627619469
  C           1.30589700140375     -1.39683586238034     -2.77032267834491
  C           0.01137249276404     -1.06930424804091     -3.43729710584868
  C          -1.05992942328868     -1.83421501909219     -3.33333207855813
  O          -0.09879701192125     -0.84380624031186      0.13714624407475
  Cl          2.63739264289051     -1.26289218351629     -3.97108279696144
  H           1.31140941895370     -2.44725974860313     -2.46008251606479
  H           0.00950071326515     -0.18016061787267     -4.04937538312468
  H          -1.06758875366866     -2.73250319041243     -2.73761902874119
  H          -1.97849446258893     -1.58361581073769     -3.83296323594698
  Cl         -0.39045565539889      1.32583939861020     -1.72825849596718
  Cl          1.95224775778499      1.70693623122854     -0.09432320851650
  Cl          2.18059669271778      1.70680836081084     -2.97100200568204
