17
Coordinates from ORCA-job NEB_reactant E -41.422348346420
  C           1.67193397464531     -0.01854013960662      0.09376334686857
  C           1.14178401634055     -1.01809291113091     -0.61845147367242
  C           1.94407232060502      1.30819675895941     -0.51477041782123
  H           1.93497761805496     -0.14975080065946      1.12832484516700
  I           0.77611606164883     -2.86194464296879      0.37591364891112
  C          -0.00297063196449     -1.91504002085527     -5.04508260218719
  C          -0.23418876948978     -1.21424094560339     -3.94717196185396
  C          -0.02569405640702     -1.76575438665908     -2.57278318230648
  O           0.90251128780087     -0.91572398843898     -1.91072502739482
  Cl         -0.25483963744211     -1.28651454924608     -6.61592141233183
  H           0.34056228749650     -2.93906076379952     -5.03447334125022
  H          -0.56535787921839     -0.18792104124704     -3.99249547497507
  H           0.36893499447156     -2.78847815471289     -2.61809688781459
  H          -0.97745089777190     -1.76974880236685     -2.02393943279864
  Cl          0.46987693371499      1.99395913865621     -1.25925152670670
  Cl          2.52300477146019      2.44503873886618      0.71227549097269
  Cl          3.18472760605489      1.18851651081309     -1.80381459080624
