18
Coordinates from ORCA-job NEB E -36.679372311780
  C           1.05250766456975     -0.24130310634098     -0.21595249189652
  C           0.53488276702349      0.01066084229554     -1.50252249078812
  C           0.92702873654043     -1.61248295794251      0.36333212525338
  H           2.05264753854001      0.15043815771690     -0.02830279403442
  H           1.05126888715913      0.76871245485237     -2.10416761802790
  C          -0.10433604050656      1.02126801339775      0.79819977449819
  C          -1.38922547580686      0.59470768371509      0.42052768791725
  C          -1.79576903717306      0.69660122559740     -0.91208043215772
  O          -0.65671682668033     -0.30890994785734     -1.80301328934685
  O           0.22165415816207      0.89129402901660      2.10827814703239
  H           0.29947767502335      1.90478072086095      0.30588945818144
  H          -1.88942724354234     -0.09047071791444      1.08739280630224
  H          -1.57019552706494      1.60456716652830     -1.45657289023382
  H          -2.73433372574600      0.23764164767617     -1.18502160936311
  Br         -0.76149461958298     -2.51139939551751      0.14701021724069
  Br          2.28053006484536     -2.73832945050431     -0.59720638641483
  Br          1.43676836918054     -1.71817347317269      2.24395353375925
  H           1.04473263505895      1.34039710759268      2.33025625207845
