18
Coordinates from ORCA-job NEB_reactant E -36.730538434170
  C           1.48355674683749     -0.13110587663524     -0.10919897068808
  C           0.83909204935185      1.03868241812078     -0.02897444020834
  C           1.97674147155852     -0.78043885492699      1.11661096202795
  H           1.65550518090718     -0.61313884050436     -1.05541640724098
  H           0.46330694315743      1.53740191923182     -0.91510739664472
  C           0.24613539038748      4.17134966730581      3.28189652999319
  C          -0.32989426033385      3.16493644068804      2.63667557069527
  C          -0.06128186050151      2.85185921065081      1.20267942969205
  O           0.64083261884994      1.61124602301994      1.15770608899174
  O           0.06230479905384      4.49146138374663      4.57329864343279
  H           0.91905493390379      4.86450512365246      2.79635104721764
  H          -0.98563284675179      2.47646848905947      3.15141095858689
  H           0.55289834659591      3.63492534981204      0.74197558012759
  H          -0.99981575963725      2.75202073642531      0.64071876252924
  Br          2.83755352089994     -2.47727262256481      0.73621445143586
  Br          3.27637305268029      0.36185926267763      2.07236877055785
  Br          0.51651639577173     -1.12257347696472      2.39353246682719
  H          -0.51324672273100      3.84381364720538      5.00175795266687
