24
Coordinates from ORCA-job P E -34.676758949840
  C          -1.31012578036895      0.34085173487750     -2.35679075437083
  C          -0.11141085116438     -1.73076431476719     -1.02357941480280
  C          -1.46518413789023     -1.95967211716509     -1.61664274853624
  C          -2.04122480886411     -0.96478079794115     -2.26992169066893
  C          -0.83265054898775      0.73432119598704     -0.94219657041099
  C          -0.07936234216192     -0.40837830895734     -0.23209217995345
  H          -1.92985752192582     -2.92553548794476     -1.50155123469528
  H          -3.01749735949401     -1.02578251624700     -2.72214469631956
  C          -2.16531861812051      1.45125275933036     -2.94989207651279
  H           0.18387737488183     -2.54989527034368     -0.36900983302304
  H          -0.42443815266966      0.22173006397908     -2.99485576802601
  H           0.62525366977890     -1.67175347504356     -1.83255360349986
  H          -1.71528550985922      1.00243177873554     -0.35959111843098
  H          -0.55004711691785     -0.59335702377760      0.73807882441496
  H          -0.19130667102849      1.61484490464611     -1.00366184114813
  C           1.36804262670582      0.00166518873229      0.03399227789785
  O          -3.33690933438781      1.31541034308192     -3.18900861779515
  C          -1.44116670718727      2.75232028240519     -3.20005102744215
  H          -0.40386220357479      2.59216626711888     -3.47838340899428
  H          -1.47024247678492      3.34330873969652     -2.28541798703502
  H          -1.95554472103381      3.31411099807951     -3.97559083843153
  F           2.02382506947168     -0.97268651928261      0.74591637223818
  H           1.42266107834351      0.91470072054038      0.63689155587245
  H           1.92614504323976      0.13566085425963     -0.89953362032641
