20
Coordinates from ORCA-job NEB E -44.239165251050
  C           0.79195394482396      0.04616866225279     -0.98249237665149
  C          -0.31110366653329     -0.74471055952531     -1.30450797592241
  H           1.71829710356272     -0.46659924525997     -0.76410702164249
  H           0.91265180874985      0.96137307058835     -1.54842967746366
  C          -1.48383117109114     -0.11481507842473     -2.03555984283305
  C           0.34387413245388      0.54160815749133      0.81058122945942
  C           0.12177324603046     -0.69580290855499      1.41804168803477
  C          -0.92899850012081     -1.51846824951301      0.89366358207988
  O          -0.55569554558776     -1.82818636172805     -0.60818393727618
  C           1.45515592867189      1.40461029828819      1.33401385769867
  H          -0.53202576282422      1.14266958391920      0.57327369527337
  H           0.94529017390317     -1.18884735836315      1.91626481003345
  H          -1.90036377166624     -1.03430947597441      0.80727487416618
  H          -1.00536065351672     -2.50665396315375      1.33271298010919
  F          -2.12922425782875      0.78343150851632     -1.22569807103882
  F          -1.06794043633696      0.59277272705905     -3.10670418051658
  H          -2.22412244452819     -0.85830306196828     -2.36241042131127
  Br          0.96243579543929      2.02680941834886      3.13983708701769
  Br          3.15298249675947      0.46351432350968      1.47627399781166
  Br          1.73425157963941      2.99373851249189      0.23615570297168
