20
Coordinates from ORCA-job NEB_reactant E -44.264575427210
  C           1.63785346381766      0.12668318785311      0.26652975451566
  C           1.55288482907980      1.45068644074037      0.23086938366041
  H           2.15957481673034     -0.40606301811147      1.03920459746580
  H           1.17449595868955     -0.46902138007260     -0.49593734893602
  C           0.80507530805742      2.16828992331601     -0.87441035454757
  C           3.41303904616461      3.06321748883611      4.28462129305568
  C           3.31817799033457      3.03330821749364      2.96507146262542
  C           2.80731847574294      1.85573440579522      2.20165921985608
  O           2.07369256707021      2.34549933533139      1.10139418084425
  C           3.94638193269427      4.17717341529267      5.09680781801389
  H           3.10324552876690      2.21469455545497      4.88403080345514
  H           3.60850900762796      3.87129584187544      2.34658242487891
  H           2.17758994494635      1.21335526163951      2.83138501013406
  H           3.66398912645039      1.26225562730260      1.84296840363302
  F          -0.20816451006771      2.91091521555864     -0.37037274752000
  F           1.61934477753592      3.02702586770895     -1.53105781614192
  H           0.38087969816248      1.47011517328492     -1.61136838896205
  Br          2.58114512516445      4.74843120145250      6.39956125776170
  Br          5.51199376451229      3.53220469702617      6.11756665288195
  Br          4.50047314851961      5.73609854222184      4.08859439332561
