20
Coordinates from ORCA-job NEB_product E -44.279380557980
  C           2.63081509098458      2.40782827675474      1.19405032772767
  C           1.24363558581711      2.72593309260635      0.70700620016689
  H           2.88074178317359      1.43038482189597      0.76464120867619
  H           3.34623790543631      3.12242310795905      0.77682986231454
  C           1.20099877335080      3.15158690569040     -0.78070938772686
  C           2.71066905889566      2.33150108707962      2.72410698490397
  C           3.65040657988970      1.24564640491179      3.17091991683534
  C           3.33452855433341      0.33751046575572      4.07445840791363
  O           0.23605031797741      2.61879004357812      1.34513958895822
  C           3.14125373596879      3.66803477698851      3.32234856190591
  H           1.70333068052716      2.11953792493091      3.10948522545938
  H           4.62801053784740      1.25556896751690      2.70801742629823
  H           2.36719648704520      0.31493477558828      4.54906801327338
  H           4.03374875540703     -0.42225603198571      4.37582246047977
  F           2.07576314779906      4.15448010344512     -1.01158060340407
  F           1.60050004185392      2.10676686434165     -1.54618757485067
  H           0.19803438884198      3.46650703994963     -1.10035427705841
  Br          3.06187475313970      3.59197108885724      5.26909393663418
  Br          4.97116194217785      4.13323263780293      2.81830149282283
  Br          1.97714187953335      5.13321764633278      2.73194222866991
