25
Coordinates from ORCA-job NEB E -31.686169901420
  C          -0.18192211354940      0.11724068470124     -1.30099163054512
  C          -1.46485778143429      0.65668638839791     -1.16645200475796
  C          -0.03515863782659     -1.37564471829899     -1.42351636109223
  H           0.50153252445534      0.68116327398471     -1.92985240550495
  N          -1.67581761112187      2.00535720759717     -1.46113144160038
  C           0.42216241479781      0.53761455439835      0.56031868912870
  C          -0.53532870654273     -0.11170555125968      1.33365087464686
  C          -1.88442994231852      0.32329803102663      1.20474532483662
  O          -2.32260877440838      0.09924701863474     -0.36463209578451
  C           1.89634248502064      0.19503784410668      0.64009615400971
  H           0.26861460839609      1.60663402225642      0.42998636141459
  H          -0.36799036236538     -1.13155119855666      1.64165887134516
  H          -2.04842756930002      1.39548655944801      1.28539662771419
  H          -2.63690272127661     -0.25338410853539      1.72862226107200
  H          -0.73106765675373     -1.87748429709922     -0.75732437091757
  H           0.97873219309145     -1.69200078331753     -1.19714810674719
  H          -0.26034580623558     -1.68071795171347     -2.44678300001333
  H          -2.63714609688097      2.29897210613555     -1.37822237381081
  H          -1.20491449138313      2.36419131005517     -2.27543274821443
  C           2.23232858363148     -1.09495022416251      1.38029217236438
  H           2.39214846673072      1.02280886851075      1.15709176671941
  H           2.32298072640663      0.15662368705989     -0.36483768881598
  H           1.89403964221065     -1.03917211030763      2.41177798139859
  H           3.31020599337820     -1.24586655448492      1.38117733030538
  H           1.76783063327817     -1.95788405857722      0.91150981284885
