25
Coordinates from ORCA-job NEB_reactant E -31.712327970290
  C           1.24034464244015      0.07925901317682     -0.33442183153161
  C           1.69557980815920      0.95735526222675      0.55945964134506
  C           0.34454263020659     -1.07203852188429     -0.00741925746005
  H           1.52834583273552      0.19653498961122     -1.36843912105868
  N           2.58012846864716      1.99570880913265      0.24988864532327
  C           4.08637070885125      0.95431834733618      4.03999589458214
  C           3.56381240080232      0.60678432764192      2.87615037497531
  C           2.17559384600752      0.06886631269507      2.70114689858761
  O           1.35584045544267      0.91078130440581      1.89423154199113
  C           5.47203392566227      1.48462000840926      4.22629301449802
  H           3.51005250184579      0.83376155156659      4.94913443647210
  H           4.12551902563076      0.72851324415578      1.95950863311672
  H           1.65725685329473      0.01102573971061      3.66156166599418
  H           2.22233920496687     -0.93471176025238      2.25392260049300
  H          -0.02182572011272     -0.99025141947233      1.01265060609359
  H           0.87239161141363     -2.02123877583890     -0.11909622489295
  H          -0.50951243380585     -1.08832250156594     -0.68394540703742
  H           2.52470250219743      2.75965618785248      0.90885974095780
  H           2.54293616531234      2.30324758662743     -0.71030379197968
  C           6.29846928697753      0.56267421333681      5.12269351357626
  H           5.41614896893028      2.47345174698635      4.69093099235436
  H           5.96077517040242      1.59179887220443      3.25638577941790
  H           5.82971459562578      0.45854602425363      6.09877800469151
  H           7.29960643584683      0.96394136824369      5.26190157057709
  H           6.38003311251952     -0.42478193055965      4.67413207891336
