25
Coordinates from ORCA-job P E -35.875513029330
  C          -1.39656908057119      0.38307313697522     -2.35520875424368
  C          -0.40063157686293     -1.82807179893752     -1.04545414793778
  C          -1.75201577135862     -1.91010327814731     -1.68010835325116
  C          -2.22230473220122     -0.86911684066379     -2.34715101772782
  C          -0.96469791377237      0.66683426045147     -0.90929402093052
  C          -0.14943970498463     -0.49318834288675     -0.30844736852843
  H          -2.29786039174085     -2.83784258761138     -1.60995947310497
  H          -3.17492667715328     -0.86862310125430     -2.85189749126296
  C          -2.17717569911736      1.55857118606864     -2.92266063212914
  H          -0.25246234132407     -2.66086473908813     -0.35893623595720
  H          -0.50506919247439      0.24549253847395     -2.97950070830749
  H           0.34341933361446     -1.92187472200627     -1.84360293976901
  H          -1.87034902100123      0.82383367532041     -0.31869771450662
  H          -0.46578612168478     -0.61908890828035      0.73173035830255
  H          -0.38165855858875      1.58812387496713     -0.87472238749971
  C           1.34659794182839     -0.15458995760250     -0.30267290039282
  F          -1.41849846699642      2.68439787348134     -2.94741240082986
  F          -2.53925527981238      1.32937440729493     -4.20989343668349
  H          -3.09254486642005      1.78817868505624     -2.35445856261889
  C           2.19793644794826     -1.20703595783735      0.39861175511572
  H           1.48533473976586      0.80049108818059      0.20944174479332
  H           1.69323174479505     -0.03080880846437     -1.33124807492843
  H           1.84161022774899     -1.36802484655348      1.41383383047513
  H           3.23322639195523     -0.87796219039744      0.44866394056854
  H           2.17033856840827     -2.15574464653898     -0.13043500864530
