25
Coordinates from ORCA-job R E -35.780285757980
  C          -1.31250596073407     -0.01664820969830     -3.06928689634482
  C          -0.69088525877435     -2.93765220848387     -2.61720558532348
  C          -1.73283694366535     -2.27097829452059     -2.13170613575198
  C          -1.94888715095364     -0.83936920915916     -2.23837545180129
  C          -0.99387606001416      1.21216676315583      0.53864263360994
  C          -0.29323273736889      0.09462282262398      0.50711197715065
  H          -2.49514155350718     -2.80786092523115     -1.58260987521192
  H          -2.70289368978378     -0.43255270640870     -1.57672452992350
  C          -1.57516520546397      1.45058853114568     -3.10800900889310
  H          -0.59550871162757     -4.00195841609307     -2.48997016366126
  H          -0.56781222363361     -0.35902284912966     -3.77124466016407
  H           0.10776450727052     -2.44870297409605     -3.14842378402582
  H          -1.88971188751235      1.31269322776603      1.12886685402468
  H          -0.60641979810360     -0.76328548520552      1.08951496830054
  H          -0.69491836029542      2.07951254935144     -0.02706956039660
  C           0.96699797225841     -0.09268187837708     -0.27449208608274
  F          -0.43363558847517      2.15362367543196     -2.86997061583853
  F          -1.98912461379671      1.84351973120096     -4.34419592091610
  H          -2.33019783936515      1.78331304520317     -2.37979337315312
  C           2.15240725146124     -0.35481505793145      0.65471305046948
  H           1.16045153565180      0.79350438477120     -0.88069415433682
  H           0.84507085795757     -0.94836120114406     -0.94496219197414
  H           2.30151262170606      0.48982278157538      1.32338041184736
  H           3.06188842073992     -0.50387895872574      0.07758893944673
  H           1.97618041602946     -1.24351913802120      1.25723515894991
