25
Coordinates from ORCA-job TS E -35.763869398280
  C          -1.09795537382731      0.56298201986551     -1.39817896761867
  C          -0.03448756673321     -1.77160947529273     -0.13971909656098
  C          -1.35459219767774     -1.63451429236813     -0.41007928056814
  C          -1.88154592122278     -0.50181780226954     -1.06479747494286
  C          -0.43866875321816      1.13024813421547      0.67484604657641
  C           0.35826856286738      0.15566133312671      1.18350019650474
  H          -2.06250189533630     -2.31784409188397      0.03836295934231
  H          -2.95702903796124     -0.39174014134939     -1.09922108451536
  C          -1.71314921107228      1.78826570597495     -1.99743597156883
  H           0.30219059804489     -2.59480942112702      0.46805479852075
  H          -0.05298279135802      0.44223722218172     -1.63237041811864
  H           0.71610372585611     -1.28936677091672     -0.73509854070623
  H          -1.46037594008941      1.22447232395187      0.99951489490599
  H          -0.02560160934103     -0.51778046933328      1.93365091177654
  H           0.00021102075178      2.00161533310772      0.22031874721554
  C           1.85727961408290      0.25301580181196      1.07060759496014
  F          -0.89990739225144      2.86881192776920     -1.87737647734247
  F          -1.90034680366562      1.63003846727236     -3.34179027391168
  H          -2.69018295080284      2.05379092293333     -1.56432766487986
  C           2.60924150303903     -0.94179649217260      1.64400516689011
  H           2.16717271766391      1.14728028987184      1.62305160060670
  H           2.15073844638620      0.41672744989478      0.03039125562049
  H           2.29410969721662     -1.13154319832935      2.66771620985894
  H           3.67870654752396     -0.74298471254664      1.64859638009127
  H           2.43530501112459     -1.83934006438805      1.05777848786377
