20
Coordinates from ORCA-job NEB_reactant E -47.566632658420
  C           1.83897499053702     -0.13745662888975     -0.09710080693967
  C           1.53794285271227     -0.93659231150337     -1.11672231575033
  I           2.54480171887173      1.83900308926045     -0.11417526694291
  H           1.69228686469679     -0.47996282836405      0.91183507552925
  C           1.00605667714311     -2.32741166883373     -0.87695630227872
  C           2.20090064111246     -1.30236547867254     -5.08777722769832
  C           2.74873269796358     -0.26186654463343     -4.48486462882966
  C           2.51314317793302      0.13201873041445     -3.06134659591067
  O           1.63741689646066     -0.80003517217675     -2.45364868872302
  C           2.46514750022830     -1.65762539926500     -6.51879458712891
  H           1.53175561971432     -1.98254060636935     -4.58462830446363
  H           3.41982120608477      0.39852869565013     -5.01578246347981
  H           2.07647818874615      1.13891911049063     -3.04012843809951
  H           3.47450018946566      0.15477882142059     -2.53280159918028
  Br          0.31052250971227     -2.67705109393738      0.88655202217973
  Br         -0.41375303716455     -2.68824976204944     -2.15716444172678
  Br          2.48003442795705     -3.59216979954349     -1.23404608535723
  F           3.32871431336052     -0.79963070882823     -7.11122866682821
  F           3.03192885760287     -2.88921663207003     -6.60765397640497
  H           1.54349370686200     -1.67917381209970     -7.12556670196637
