23
Coordinates from ORCA-job NEB E -50.283952810910
  C          -0.73049918583511     -1.36279993992707      0.48826695041482
  C          -0.74569531658086     -1.54060923887966     -0.84727046226135
  O          -0.49821571747191     -0.20101076322824      1.10411425852339
  H          -0.93994724438958     -2.23649149018236      1.09863743654905
  N          -1.04823468256816     -2.86468463382917     -1.34758002781713
  C           1.03901862811793      1.39869855873613     -0.74958157426798
  C          -0.16445373603492      1.66385700545468     -1.23735305167082
  C          -1.06698821396327      0.62105215657245     -1.81805882299853
  O          -0.50145683670850     -0.67222999833729     -1.86301072403753
  C           1.90510244709480      2.38856257226163     -0.12734778636299
  H           1.40793958492668      0.37750261957467     -0.76307007666890
  H          -0.56890805106003      2.66571000831907     -1.23086757911094
  H          -1.28130018096064      0.87811945598968     -2.86254236277766
  H          -2.01579372360049      0.61785995375729     -1.26554587623627
  C          -0.37728166902574     -0.25349124682350      2.51691664432413
  H           0.60403630737225     -0.64216247748111      2.80111711010509
  H          -1.15666714589738     -0.87688076296127      2.95969278249848
  H          -0.47699839950073      0.77043154493240      2.87117386222924
  O          -1.14375790106071     -2.99328800503403     -2.54436752781665
  O          -1.18716071664002     -3.75554783312879     -0.53175948504210
  Br          2.19413556332646      2.32780155267735      1.65309266685772
  Br          3.10604870499810      3.37636902683163     -1.18701655078109
  Br          3.64707748546184      0.31323193470552      2.88236019634803
