23
Coordinates from ORCA-job NEB_product E -50.325394486020
  C           2.46767084340096      1.38468636581388     -0.41058013148505
  C           2.19973312687453      0.85902772871250     -1.81078938173026
  O           1.30243982673053      1.00284409403491      0.29408762092475
  H           3.35436751227113      0.90673371990865      0.02548649713129
  N           2.64303411335169     -0.60700672838083     -2.00604100007710
  C           2.61795362327073      2.92128054535015     -0.43788796853269
  C           2.15702601789948      3.53236124013066      0.85622318038988
  C           1.30526561083979      4.53786069201017      0.91456090388421
  O           1.57171241400683      1.36350280026892     -2.67812837565462
  C           4.06213074901957      3.30971575450652     -0.72169292152804
  H           1.99686227216959      3.31031487753028     -1.25573819091433
  H           2.57748746345304      3.10370503053973      1.75509266038055
  H           0.87458566441515      4.97649136811902      0.02964595792321
  H           1.00303223457293      4.96145084318571      1.85581814960091
  C           1.49312087919330      0.03359549894075      1.30626799319788
  H           2.14780829021845      0.41252263696831      2.09679321004445
  H           1.91442820665873     -0.89290109548466      0.90429770027788
  H           0.50204292153341     -0.15996085229106      1.70985762386904
  O           2.42289896107937     -1.07860368721337     -3.08376736732245
  O           3.16612768300741     -1.14534660951711     -1.05811480278348
  Br          4.20207476571955      5.22722348168878     -1.00689311063238
  Br          5.25108397629587      2.83199051255039      0.74758546549192
  Br          4.73981284401794      2.39881178262769     -2.33368371245557
