21
Coordinates from ORCA-job NEB E -46.062281503650
  C           0.82797872780331     -0.58026360218868     -0.77718149562835
  C          -0.31610832330698      0.23319348332946     -0.77358244935201
  C           0.65294764467243     -2.07082855694620     -0.83575856793377
  H           1.64387591052497     -0.25963942583185     -1.41562601642424
  O          -0.17556579337030      1.43580617667788     -1.37339762656839
  C           1.41623596182958     -0.23134956154132      1.13007244537221
  C           0.28418945823449     -0.55561914294717      1.85881156732594
  C          -0.89220560726019      0.19956766856622      1.61660143105858
  O          -1.30260459579433     -0.00016208237542      0.01137784696405
  F           2.51406555869440     -0.98494331315502      1.27373861650818
  H           1.69699639195292      0.80133734059090      0.93718430298976
  H           0.19551163630609     -1.56314871634501      2.23337406057386
  H          -0.78915014398514      1.28002531725744      1.63245572660416
  H          -1.79524134993986     -0.14779601779131      2.09989861160212
  F           1.79740279019011     -2.73214638574408     -0.63413990752596
  F          -0.24227546985230     -2.57716857600103      0.01510160359637
  F           0.23474949680956     -2.43974895300699     -2.06882913887624
  C          -1.24127120012125      2.36618860216949     -1.24833165763047
  H          -1.25551852907267      2.94471726269646     -2.16985062437308
  H          -1.06192247997648      3.03291834226296     -0.40137173412418
  H          -2.19209008433833      1.84906014032327     -1.11054699415854
