21
Coordinates from ORCA-job NEB_reactant E -46.091810117660
  C           1.53470074486873     -0.01774519474468      0.15235184382241
  C           1.84812203617801      1.22063780614062      0.58504573190084
  C           1.76468317803274     -1.34314804037619      0.75568028475707
  H           1.02786147904827     -0.06001006706142     -0.79676399576757
  O           1.48751797434300      2.22561941792253     -0.22918436514663
  C           3.07628935895609      1.59323124308991      5.04959579348870
  C           3.48491643303682      1.64832754685938      3.79675902495688
  C           2.91962615982826      0.78320994430210      2.71705547196045
  O           2.46065299063187      1.65636155105739      1.68878896457814
  F           3.61272907310782      2.36937624662697      5.99761138102696
  H           2.31584270602172      0.93457591578165      5.44447800418516
  H           4.25216906585250      2.34840223587583      3.50280527733939
  H           2.09541586801414      0.17987066429444      3.10559262534549
  H           3.70526262677158      0.12888503770710      2.32212875626420
  F           3.06643725575682     -1.64271423262752      0.99633742274720
  F           1.14539099176816     -1.54214091018160      1.94857954250143
  F           1.31451427361945     -2.31361472932177     -0.04684477920756
  C           1.79128510073379      3.55420560736676      0.16643345270199
  H           1.40003857667470      4.18315827945246     -0.62979926378819
  H           2.86909972279430      3.69999210981047      0.26248494201855
  H           1.30894438396120      3.80471956802558      1.11336388431511
