19
Coordinates from ORCA-job NEB_reactant E -32.409381207150
  C           2.63997105048564      0.45492714515583      1.05120559076047
  C           1.51698006477091      0.31760328201623      1.74144396207800
  H           3.40259158668261     -0.29973441143478      0.98913907186079
  H           2.83253932645594      1.36527894240277      0.51675210008104
  C           0.46473346651831      1.37850663294317      1.84908495504566
  C           3.52455755533299     -0.84498660412472      4.02778143315165
  C           3.19492557816895     -1.85357685153305      3.22968851945098
  C           1.94796635268414     -1.93295179108528      2.41414157688429
  O           1.13541732145790     -0.79270409303223      2.45498148775778
  N           4.74020794627018     -0.86524868178216      4.78281837482847
  H           2.93331961005112      0.04459887070442      4.17779016502606
  H           3.86140951850930     -2.70463596812925      3.15846781979797
  H           1.32857532840943     -2.74598039396797      2.81420067012185
  H           2.20859461477282     -2.19516828735625      1.37768830168112
  H           0.32727803590483      1.65702775686863      2.89224903843415
  H          -0.48510632795626      0.99421155857835      1.48269897909361
  H           0.74571682745641      2.25565296853832      1.27659116444684
  O           5.47922665394160     -1.81935866197791      4.66166365222947
  O           4.94889549008316      0.08893858721589      5.50071313726980
