18
Coordinates from ORCA-job NEB E -41.856915690570
  C           0.59140387695513     -0.93448665433005      0.43738009146438
  C          -0.66380555384671     -0.82279468695439     -0.20914055427260
  C           0.54735124398875     -1.03617499689113      1.86257095085276
  H           1.31529068811655     -1.61195551448343     -0.01027238368404
  C          -0.82190760470590     -1.31553105451443     -1.62709349965928
  C           1.28064072030065      0.79366936819010      0.21721438293909
  C           0.28699109931733      1.60153091477333      0.77612234206946
  C          -1.00713564319386      1.55733853215406      0.16944264653359
  O          -1.52314414924463      0.04538407657956      0.22906267019471
  I           3.21839560041529      0.83301069491070      1.09997687558460
  H           1.38042681754806      0.76895916512721     -0.86138134523872
  H           0.36107333139022      1.89026906755568      1.81433989142358
  H          -1.03292672905287      1.73638932212850     -0.90372760793634
  H          -1.78786475256372      2.09457275838476      0.69601001867735
  N           0.48735683110830     -1.11756463891548      3.00043216229964
  Cl         -0.10737762692029     -2.92373937420967     -1.83661937214808
  Cl         -2.53517007366739     -1.36570496902537     -2.06700178302001
  Cl          0.01040192405508     -0.19317201047995     -2.78731548608010
