18
Coordinates from ORCA-job NEB_reactant E -41.890412006730
  C           1.72159596830196      0.02650118529122     -0.06313755574073
  C           1.45245658918173      0.67398711715475     -1.20955545220771
  C           1.89173806942302      0.58550347630615      1.21163471173498
  H           1.82293594515355     -1.04880505050998     -0.08337458279939
  C           1.34425596336418     -0.06794263330273     -2.52559533452185
  C           3.61213333437273      4.27442736772753     -0.68154305131871
  C           3.00638731015689      3.17832511659712     -0.26780466576825
  C           1.53209413737334      2.96166288733720     -0.44928035415715
  O           1.26946194431513      1.97880891820442     -1.44689052213900
  I           5.67037662340980      4.59725108379188     -0.45834602612454
  H           3.09782965766670      5.09524190593904     -1.15308205840329
  H           3.55573872601838      2.37497336050286      0.20045111028028
  H           1.05373042560644      3.86457975877291     -0.83650212362066
  H           1.06608361648414      2.67898396089914      0.50011884350707
  N           2.05684033485658      0.97713233361253      2.27846671483454
  Cl          1.19162348493006     -1.81639734581668     -2.35513947511234
  Cl         -0.05718648515242      0.53028824840538     -3.44276805852487
  Cl          2.83280435453779      0.28687830908726     -3.45755211991839
