19
Coordinates from ORCA-job NEB E -34.279918061820
  C           0.71619577515026     -0.62148374938159     -0.85869234217502
  C          -0.66437756623096     -0.37680034764385     -0.94945641555263
  O           1.14601962678132     -1.81867050835956     -0.36763956977041
  H           1.39936149846156     -0.22264988812334     -1.59753569131778
  C          -1.18267632210573      0.77999849631594     -1.77653514673093
  C           1.06063286302680      0.60278174822390      0.68421271277466
  C           0.24555875638036     -0.01089899026467      1.65001917851449
  C          -1.13752037068194      0.02316990800798      1.52292117673123
  O          -1.42015005736138     -0.87767829770687     -0.04606695807753
  O           2.41312923851918      0.56863542556741      0.76918868301895
  H           0.74515013518891      1.53861331548379      0.23662065079797
  H           0.69187613218547     -0.80595051166334      2.23582390755383
  H          -1.61112408921767      0.93341101287118      1.18445324149129
  H          -1.73629936107107     -0.56744231654530      2.19772712093079
  H           0.38852986907349     -2.23160974906185      0.07918363754533
  F          -0.18333447501615      1.38666239813311     -2.48943921532849
  H          -1.63929395343871      1.54530903916701     -1.13513905317836
  H          -1.92984566982223      0.42547008805728     -2.49560222048194
  H           2.69816797017846     -0.27086707307723      1.15595630325455
