20
Coordinates from ORCA-job NEB E -39.376918445830
  C           1.11295235566166      0.40311032021998     -0.45133435084391
  C           0.42814412309595      1.47183282455838     -1.03745872261001
  C           1.29447012915616     -0.84507448974105     -1.27434979029690
  H           1.99176996575743      0.67442817813503      0.12633548293913
  Br          0.73546053430087      3.23162182267345     -0.21598023515350
  C          -0.25600538679402     -0.01030468633151      0.89459712567066
  C          -1.42302896885249     -0.15715480746417      0.13806876517685
  C          -1.88871549336288      0.96739265149385     -0.59850954318487
  O          -0.68552024145516      1.33083861699484     -1.63018965673463
  C           0.16927978986670     -1.14174831091846      1.78208758741233
  H          -0.13619477805515      0.93270550373861      1.42938677030534
  H          -1.71944907349337     -1.14182054405547     -0.19247501861916
  H          -1.96609644686075      1.90726213117201     -0.05459529494948
  H          -2.72908894968518      0.79672711330529     -1.25926533349810
  H           1.70675522675647     -1.65499197574238     -0.68010260041258
  H           2.00946767650007     -0.63256236098412     -2.06873733985598
  H           0.36168148854362     -1.16228122383515     -1.73374406121789
  Br          2.03442246100231     -1.01571974406602      2.34719099936153
  Br         -0.92947303960749     -1.03515558394497      3.43343117600938
  Br         -0.11083137247475     -2.91910543520815      1.04564404050177
