20
Coordinates from ORCA-job NEB_reactant E -39.401585396660
  C           1.77134980827916     -0.05276764397172     -0.02713829621572
  C           1.61054559930379      0.29088815506025      1.24199897934664
  C           1.52414233726823     -1.42732142839181     -0.55080472576952
  H           2.11615686669128      0.68898275008253     -0.73044793369912
  Br          1.96039007502307      2.12342772940123      1.77295853802363
  C          -0.24976840622484     -1.09045984126861      5.37139636333720
  C           0.06195451587005     -1.28833871848553      4.10055913464475
  C           0.25563909535252     -0.18124603974788      3.11980235106119
  O           1.30290484591144     -0.55551485155609      2.23896945311590
  C          -0.49472141358337     -2.14138233290607      6.38124642286974
  H          -0.36809201867179     -0.08760056484198      5.76516877408651
  H           0.19728246668333     -2.27954174333342      3.69023472087513
  H           0.49810095353035      0.76102329724920      3.62824836896450
  H          -0.67634079770925     -0.03726922607458      2.54948000086828
  H           1.13361752916600     -2.07559108389911      0.22830622957593
  H           2.45412506307815     -1.85171146397966     -0.92694611778248
  H           0.81770066857508     -1.38697981106424     -1.37883358426370
  Br         -2.34339315804478     -1.96561728391952      7.06123098590139
  Br         -0.27494073478960     -3.95692301295906      5.74062835783410
  Br          0.73074670429118     -1.88595688539391      7.90524197722567
