20
Coordinates from ORCA-job NEB_product E -39.423584671510
  C           1.56436720847401     -0.87465110371436      2.18266813558158
  C           1.11536760334705      0.21137634784638      1.24382042459903
  C           1.51153699169658     -2.21354335839775      1.45157121820916
  H           2.60290891744928     -0.65820652687122      2.46344149633204
  Br          1.51700216612011      2.01597478949869      1.94244686956281
  C           0.68768893860614     -0.74600254187147      3.45567676377200
  C          -0.77587722157003     -0.68327938465613      3.10760166948844
  C          -1.56951517959425      0.29154826226520      3.50952925840955
  O           0.58876267907951      0.12147960649662      0.19497807482114
  C           0.92524525925795     -1.81901987906219      4.51460989760129
  H           0.96897157288057      0.20264758655644      3.93431814416929
  H          -1.15629221499809     -1.49380826051321      2.50222144714456
  H          -1.21289626005092      1.11090071694419      4.11266411154645
  H          -2.61206089727852      0.31013547738168      3.24537801639769
  H           2.00677555550746     -2.99030163567376      2.02754302093011
  H           2.03457122206296     -2.12117360317059      0.50200595167694
  H           0.49055418461480     -2.51868886879708      1.23951031407636
  Br          0.12306682128654     -1.21279753687153      6.20280268763731
  Br          0.11422235324503     -3.54550906778194      4.11288331490024
  Br          2.83350029986382     -2.10558101960796      4.84812918314404
