26
Coordinates from ORCA-job NEB E -47.754486608490
  C           0.47515220966348      0.41320475784986      0.66033977980575
  C          -0.86558436903967      0.00361701634481      0.76546138586998
  C           0.79834552031100      1.79667141784441      1.18313403231538
  H           1.22507649380220     -0.31150376632816      0.95141821272289
  C          -1.25143501667803     -1.44146471207523      0.93023845448007
  C           0.67013005041884      0.64590883744782     -1.25681620870376
  C          -0.61380829230122      0.64341239408493     -1.82575592355709
  C          -1.58096816432005      1.44885043214432     -1.15408724745767
  O          -1.79695631236181      0.78734149086398      0.29800498460880
  C           1.65796573182275     -0.37141415005573     -1.76200813930730
  H           1.14511403287582      1.61730652543553     -1.16674241423965
  H          -0.96912268752552     -0.27625845925950     -2.27193345095625
  H          -2.58975799461643      1.41963733794508     -1.55012133678623
  H          -1.26865922788035      2.46368529201961     -0.91739159244836
  F           2.02908297066362      2.23955393480332      0.76846138097772
  H           0.84214613368703      1.76311331122460      2.27862838441364
  H           0.06491302044356      2.54496818541529      0.87054772546192
  C          -0.33099531777763     -2.26061985584386      1.82382189023447
  H          -1.29059299138890     -1.88771612759191     -0.07101060172299
  H          -2.27089095820078     -1.45722251981762      1.32280881717350
  H           0.64068655557252     -2.40653410421899      1.36080110764517
  H          -0.76702947449018     -3.24100148360671      1.99667156987663
  H          -0.19303168783901     -1.77111559101903      2.78487381477785
  Cl          1.03686900400237     -2.02673102555301     -1.64337198592547
  Cl          1.99936046761770     -0.03735796893978     -3.48849529974675
  Cl          3.20399030353869     -0.29833116911405     -0.88747733951225
