21
Coordinates from ORCA-job NEB E -36.666466724640
  C           0.00599056223128     -0.89010152013385     -0.07289772412143
  C          -0.15373074662151     -0.66906951877811     -1.43793793893966
  O           1.28581067086244     -0.96443421166360      0.44557226095542
  H          -0.71124235028027     -1.55220352519920      0.41388443315075
  I          -2.14472378772126     -1.15094590682041     -2.18798812511583
  C          -0.35509323457230      1.01371058348658      0.62503221529803
  C          -0.46428179388641      1.81342363636653     -0.50423335660958
  C           0.57534984294169      1.76568670254311     -1.45053862345764
  O           0.50594896254488      0.16394153036702     -2.09982339235934
  C          -1.50447592145176      0.90608910350902      1.58960478573067
  H           0.61224732498123      0.96372973600912      1.11033121650501
  H          -1.45684335596084      2.07984592287364     -0.84632013666988
  H           1.58929640216172      1.70502534559211     -1.07281150850740
  H           0.47186071191279      2.33903040223082     -2.36129964826536
  C           1.75527236905886     -2.28999559556023      0.58310405961051
  H           2.72714387568021     -2.21792814021682      1.06660803020072
  H           1.86407281226639     -2.77426790780590     -0.39250785953164
  H           1.07642024255452     -2.88536783301146      1.20403392628249
  F          -2.70570632684534      0.80445034630136      0.94011147307246
  H          -1.55827693196918      1.81084467678242      2.21005560161229
  H          -1.41503932788714      0.02853617312786      2.23802031115939
