21
Coordinates from ORCA-job NEB_reactant E -36.702842253990
  C           1.07174456877308      0.10321570925388      0.34694152412201
  C           0.96790072966142      1.22229023653851     -0.36482156283701
  O           1.80760224669423      0.04933555246307      1.48548598594455
  H           0.58045618602999     -0.80452235616662      0.02194262981825
  I          -0.25016773488739      1.15321786470447     -2.12901818930177
  C           0.23933005483779      4.07330750171543      2.56085070262070
  C           0.07920001347221      3.30458779640841      1.49775597923470
  C           0.80469333978669      3.49623048587346      0.20440820351525
  O           1.61376520597900      2.37021871853191     -0.12783985227041
  C          -0.47053484881473      3.87694365311066      3.86108272500963
  H           0.90765898206673      4.92292352615579      2.54841101895735
  H          -0.59153143002945      2.45659709469334      1.53708815286165
  H           1.49781674639234      4.33758102382670      0.25577014846755
  H           0.08200661423671      3.66916924732990     -0.60923379643438
  C           1.73825853232190     -1.16920645045710      2.18899611160964
  H           2.41970053562994     -1.07113980686699      3.03161209312344
  H           2.05221832312566     -2.01024361619897      1.56238240235552
  H           0.72546699405134     -1.35539425258897      2.56120900840860
  F          -1.28232302788527      2.77239195836084      3.84709147372590
  H          -1.11056386539395      4.73807758355252      4.09270592536718
  H           0.24850183395179      3.73221852975977      4.67727931570164
