21
Coordinates from ORCA-job NEB_product E -36.720737578980
  C           0.78036563085296      1.23197703245647      1.44502808293621
  C           1.27349144310949      1.18520917496729      0.01439636757250
  O           1.80786633905227      0.86402255031869      2.32246452897022
  H          -0.10171941933253      0.58460133857984      1.56603032660934
  I          -0.24179450213854      0.49736512776567     -1.38502457343213
  C           0.40251434892633      2.69971129716291      1.76367383187567
  C          -0.58944069564808      3.24763989260941      0.77938616013101
  C          -0.33527629897743      4.24953311603101     -0.04035742497089
  O           2.34477574865547      1.47177616987141     -0.38151131990976
  C          -0.16058963505650      2.76100750673720      3.18673589131752
  H           1.32779735512583      3.28332357590782      1.74562822929448
  H          -1.56213166303294      2.77475200453450      0.79745448029924
  H           0.62790063369760      4.73322650538107     -0.06707298096923
  H          -1.07748560050717      4.62100755821888     -0.72499467066186
  C           2.09688774347932     -0.51674730128287      2.32580479900113
  H           2.84772846091436     -0.66444194566484      3.09856188381682
  H           2.49936613504539     -0.84825964997911      1.36290152926247
  H           1.20258005952326     -1.10414699152256      2.56353498795518
  F          -1.30496778344877      2.01134190822710      3.28411236190957
  H          -0.42857165487384      3.78859424882601      3.44968513406779
  H           0.55500335463355      2.35060688085410      3.90426237492470
