15
Coordinates from ORCA-job NEB E -30.590015990070
  C           0.39205037110529      0.37430062398131     -0.48184762641392
  C           1.23130627962470      1.51695270025856     -0.01391145877131
  I           0.59900523377486     -1.20191562991323     -3.93285175842840
  H           0.47556615481508      0.19889842644558     -1.55709012508448
  Cl          2.62217869618279      0.99393791568914      0.95367407562127
  C           0.25661649240540     -0.85450765695740      0.32721779843472
  C          -0.98392690488551      0.11679528533182      0.12284512892472
  C          -1.41359484286781      0.74118785294748      1.30685195883630
  O           1.08616072814729      2.66170152750414     -0.28536588642016
  C           0.09612721420264     -2.14016916376453     -0.24477394973805
  H           0.69126261465408     -0.86799084484696      1.31877801640349
  H          -1.75291335557334     -0.21450722860115     -0.56336685767071
  H          -0.68867735216595      1.11140564537901      2.00425776780468
  H          -2.45531164171144      0.78505288241474      1.56651878768993
  N          -0.15584968770808     -3.22114233586851     -0.52093587118804
