21
Coordinates from ORCA-job NEB_product E -40.341873801790
  C           1.66257045816007      1.36803312994057     -1.27636032525438
  C           1.97682286844870      0.30450022516321     -2.36726564814741
  C           2.65286970330374      1.27235577622917     -0.12215834768584
  H           0.66259495142419      1.15438704168581     -0.87741315807213
  C           1.77491485188105     -1.13026881987490     -1.98997798489480
  C           1.59420515876560      2.76540942703474     -1.94717036241306
  C           0.67506940172802      3.72783932326352     -1.22442967076183
  C          -0.60542786387464      3.48847797353848     -1.01342191324195
  O           2.32438870142011      0.65334129009370     -3.46139232077670
  C           2.90027913514614      3.36292403864611     -2.12481789907397
  H           1.19727013688445      2.59865472601161     -2.95968500427309
  H           1.12218458578415      4.65672378589396     -0.90094467648024
  H          -1.09137664618769      2.58218532555757     -1.34013405514095
  H          -1.22816039118151      4.20011883573362     -0.50198396613334
  Br          2.12135144972482     -0.15941240630112      1.11498882838306
  Br          4.47734277084169      0.87887519220963     -0.72438308243216
  Br          2.71666788782707      2.88412511734219      0.98728869968362
  H           2.63877441684331     -1.49390411590044     -1.43406517407336
  H           1.69812934083499     -1.72139642272556     -2.89986431879398
  H           0.88969708544964     -1.27098601911748     -1.37552513826336
  N           3.91303199677607      3.87421657557560     -2.25578448215415
