18
Coordinates from ORCA-job NEB E -34.881963173460
  C           0.48032143373677      0.88230113539765     -0.70906791462997
  C          -0.74193145076743      0.77467464028678     -0.02000202331259
  C           0.51745616434124      0.57681368092991     -2.10014590076991
  H           1.11195426616156      1.72940806504979     -0.45023011419985
  C          -0.91531251952623      1.57239675470191      1.26058131336372
  C           1.38753747515675     -0.68239219379234     -0.04060279005597
  C           0.47217619567821     -1.68758153009982     -0.33205041932110
  C          -0.80016635020338     -1.64489598643689      0.31445294544788
  O          -1.49684416342070     -0.27299240035826     -0.18234042633906
  H           2.31952375934244     -0.66736772118488     -0.58979906447449
  H           1.48216304908684     -0.35283452255381      0.98603947606522
  H           0.53716612823527     -2.18940890861735     -1.28678534068664
  H          -0.78398562022317     -1.49933663255069      1.39225048027481
  H          -1.52607246174915     -2.38732740131189      0.00571978490038
  N           0.55687426462978      0.35256088304135     -3.22067524299523
  F          -0.10104269216667      1.09431100930156      2.25353231838449
  F          -0.55144023299868      2.86258630630830      1.08570080817702
  H          -1.94837724531346      1.53908482188867      1.63342211017127
