18
Coordinates from ORCA-job NEB_reactant E -34.908315698530
  C           1.58057185623888      0.07365462241826      0.04892390745034
  C           1.66541333359028     -0.90030310522775      0.97382967979206
  C           1.18212478155853     -0.16955662778743     -1.27535153091190
  H           1.81451856362835      1.09495410335081      0.30671220554450
  C           2.11701364882435     -0.54202646970818      2.37651545032186
  C           3.37091259080617     -3.73509440840304      3.18716234113219
  C           2.98703235283573     -3.41771883358715      1.96586476902426
  C           1.55492097336061     -3.24559351730863      1.55202793761741
  O           1.34844346559389     -2.16650432725407      0.65048160921928
  H           4.40832613047401     -3.87080591650843      3.43469589140202
  H           2.66372065970092     -3.88450391220667      3.98747193528891
  H           3.70517471782992     -3.27240189993446      1.17099208837846
  H           0.89284743283675     -3.16056916003546      2.42384241600422
  H           1.23637727665009     -4.11544151865785      0.96639476168005
  N           0.87204991444088     -0.34478796156387     -2.36537111243959
  F           3.47325773547478     -0.53087706775295      2.45925464396918
  F           1.71599099163434      0.70940880483125      2.69741569864013
  H           1.74190357452153     -1.22043280466440      3.15593730788660
