23
Coordinates from ORCA-job NEB_reactant E -37.756015514310
  C           1.05260222317466     -0.38821648071675     -0.41183374308321
  C           1.34180270801901     -1.62619468127384     -0.00307550907220
  O           0.62958449427553     -0.03453126935338     -1.68089527178761
  H           1.14256600831303      0.41207207341081      0.30942573681319
  O           1.70115642104401     -1.77926589503559      1.30409632323938
  C           2.32613272913099     -1.45717534473309     -3.90582418160849
  C           2.37556485126966     -2.11075332917651     -2.74702841264113
  C           1.18874582757095     -2.74836749167338     -2.09924490660944
  O           1.30242563558287     -2.80370982164919     -0.69341100210877
  C           3.46370024503799     -0.86695923900314     -4.48645360970920
  H           1.40048972098178     -1.33676367736102     -4.45284487404593
  H           3.31007724631879     -2.20790480526139     -2.20922071411123
  H           1.12833944124237     -3.80197712545178     -2.40092193914909
  H           0.26541319911724     -2.23819438836417     -2.39439567222800
  C           1.10963393187605      1.22042023467218     -2.10552196482146
  H           0.60992673253683      1.43962717275527     -3.04751742743293
  H           2.19388193598788      1.20271436777176     -2.26395181149246
  H           0.86971270914606      2.00066046365736     -1.37555619087091
  C           1.80195904445971     -3.10317049701773      1.79176959689567
  H           2.04719372112377     -3.00100502645646      2.84684579797067
  H           2.59226977389798     -3.65813137892700      1.27979096887445
  H           0.85780629493616     -3.64149861262396      1.67909751057812
  N           4.38431510495666     -0.37637524818898     -4.96332870359941
