23
Coordinates from ORCA-job NEB_product E -37.781354495420
  C           2.98701221664735     -1.20573275990666     -1.43213750480980
  C           2.25700922791477     -2.23222552511072     -0.55310758631992
  O           3.00459883252334      0.09552721345798     -0.93029141450660
  H           4.04600326855362     -1.50207637771730     -1.42223373182137
  O           1.59628375388387     -1.67876925428043      0.45438127033223
  C           2.46657124097841     -1.40739872569663     -2.89660566481519
  C           0.96244225554089     -1.37144624267416     -3.01854722403821
  C           0.21333784060099     -2.45660277255467     -2.95941554095129
  O           2.29995617685244     -3.41610982773310     -0.76706203189241
  C           3.05860611823128     -0.41916434907238     -3.76560588704933
  H           2.81990625542822     -2.40041209284664     -3.19913336991057
  H           0.51450943981662     -0.39978182465284     -3.17308267323181
  H           0.63798824067221     -3.43635700306716     -2.81466310323914
  H          -0.85894785869748     -2.40300353893248     -3.04151747427458
  C           1.83047067556109      0.87465915513792     -1.03249673348926
  H           1.69323513863586      1.24479555668173     -2.05404358403155
  H           1.99256318300127      1.72412619321223     -0.37121104473616
  H           0.94243629491091      0.32873761714265     -0.70735686794896
  C           0.92492151682491     -2.57446445662286      1.33275114311474
  H           0.44172071466710     -1.95598165610900      2.08414443350023
  H           1.64101284045716     -3.25504310919479      1.79614740208256
  H           0.18778252555851     -3.16064637045345      0.78054998060885
  N           3.49218010143663      0.38627015099275     -4.45056279257246
