15
Coordinates from ORCA-job NEB E -22.809829591800
  C           1.06284615069396      0.24246143459636     -0.87280947426719
  C           1.01002722746768      1.28021198192963      0.05643452299903
  H           0.47425951276589      0.33666733353380     -1.77331454568220
  H           2.01780449622760     -0.24532600475774     -1.02219147180445
  H           1.80609416972226      1.35392562990509      0.80746858982416
  C          -0.07030492281555     -1.06516988164427     -0.03111582262728
  C          -1.25081092391456     -0.33013058331533      0.16074752942422
  C          -1.21674562320959      0.80266128134201      0.99549492039175
  O          -0.10452848380372      1.87335536937249      0.30401907307263
  O          -0.13312114214686     -2.10566704839650     -0.92211475687626
  H           0.54740622744371     -1.25969135295141      0.84502361348071
  H          -1.96896233677060     -0.36543675583937     -0.64481766100498
  H          -0.74274301680307      0.69387387036045      1.96524919486472
  H          -2.10611155082158      1.41630114251384      1.02596300437560
  H           0.67489021596441     -2.62803641664906     -0.89403671617046
