15
Coordinates from ORCA-job NEB_product E -22.848647960320
  C           1.03585462884307     -1.87720184439019      0.39454822062670
  C           1.23612445536461     -0.54329382255472      1.04425148064939
  H           0.40253153751469     -1.77960859431240     -0.48801143754342
  H           2.01380417976099     -2.24649256509075      0.07209401733087
  H           1.67691305579516     -0.60772927822930      2.06001102891689
  C           0.44295450031806     -2.91394654127351      1.35991089437732
  C          -0.96966422151161     -2.53901359209619      1.71431254313133
  C          -1.35853676906746     -2.16792283421864      2.91882009559512
  O           0.97604847249939      0.51626903982203      0.55109748699370
  O           0.50352499691936     -4.16432210643480      0.69937045701671
  H           1.05753220399932     -2.94714526451881      2.27610051143453
  H          -1.67019251114054     -2.60028632282889      0.89260633040081
  H          -0.66830527244230     -2.10671888405275      3.74480205140775
  H          -2.37914192780257     -1.89971785353821      3.13004806492128
  H           0.01885267094984     -4.81626953628285      1.21673825474102
