20
Coordinates from ORCA-job NEB_reactant E -48.501635195940
  C           1.49473610690834     -0.09661988386016     -0.13516644612632
  C           0.94588875967641      0.99529747130829      0.40373349374880
  C           1.81677200740152     -1.26186426460236      0.71004919329893
  H           1.71419127973495     -0.14777288521811     -1.18726771954690
  H           0.70166552853675      1.86139051951788     -0.19917139896492
  C          -0.09287684399917      2.91640603745161      4.61566295691604
  C          -0.19000374895683      1.98333444814345      3.68438343052772
  C           0.09934496341862      2.21616729208002      2.23719801948499
  O           0.68156450012970      1.03751545730518      1.71653467859867
  C          -0.42947058965436      2.66953236161561      6.05328058711075
  H           0.21693215232023      3.93117542452493      4.41488345589472
  H          -0.49443044027524      0.97490726865511      3.93030037965170
  H           0.77386471713093      3.07051203177652      2.09856200425793
  H          -0.84617559495767      2.42599858528574      1.71345309818487
  Br          2.57813501159059     -2.71293765203121     -0.32913366697057
  Br          3.10509562449976     -0.78408805319255      2.13073607478829
  Br          0.21267279220853     -1.94946896559773      1.62586284729242
  F           0.60069684487669      2.96465038967315      6.86271943845511
  F          -1.45495078117669      3.44378650004275      6.45682471711030
  F          -0.77915228941309      1.40647791712186      6.31285485628748
