19
Coordinates from ORCA-job P E -36.522181212140
  C          -1.29763840552294      0.41390624754824     -2.33920555969491
  C           0.02747868381435     -1.59659677934389     -1.06028806166754
  C          -1.29503073130228     -1.91351802655367     -1.68374341876315
  C          -1.94207229466428     -0.94234404021943     -2.30765647372895
  C          -0.86175698311357      0.80341096874604     -0.91209417696846
  C          -0.12017821953923     -0.33753619582555     -0.20606761362466
  H          -1.68656584006270     -2.91426455976129     -1.60685936578240
  H          -2.90006378329991     -1.07961895926630     -2.77879859931210
  C          -2.21629124954163      1.46298152259679     -2.94905873372125
  H           0.39139848647913     -2.42184552215978     -0.44808571586461
  H          -0.40201834725395      0.37022360673617     -2.97349322695213
  H           0.76112419251237     -1.41715362765780     -1.85285569001633
  H          -1.75772583151364      1.04819104181669     -0.33854737615393
  H          -0.63891409610282     -0.59642632019490      0.71609427134720
  H          -0.25293457730832      1.70474601791906     -0.96792023309429
  I           1.85850523967214      0.29003676901709      0.47647986105330
  Cl         -3.73719652970179      1.59873084246053     -2.03807307600017
  Cl         -1.43772815204885      3.06323889901037     -2.98020334974962
  Cl         -2.61365156150209      1.02013811513162     -4.62981346130598
