19
Coordinates from ORCA-job R E -36.432290775450
  C          -1.28805921943127     -0.10278291104146     -2.93041560533232
  C           0.12961594581409     -2.64361791008664     -2.14299932698816
  C          -1.09545801269928     -2.28183454936442     -1.77424921310697
  C          -1.73440419091219     -1.01269491874633     -2.06264393722818
  C          -1.15304912694519      1.83052895425329      0.45956541310475
  C          -0.48432046359736      0.70185422480424      0.38983352908496
  H          -1.69542532420031     -2.96910978465179     -1.19126809263826
  H          -2.65365543593843     -0.81985398891765     -1.52628307965938
  C          -1.93128819529020      1.19628107266823     -3.22179645205699
  H           0.53221541057540     -3.60639668652149     -1.88045410147073
  H          -0.38721756651680     -0.27047966159030     -3.50144249488991
  H           0.77950172403500     -1.99266355844714     -2.70081621890165
  H          -2.15345815111485      1.85016437469697      0.86052790536549
  H          -0.86596024594828     -0.25027111410934      0.71560424863474
  H          -0.74775019475627      2.77063063847121      0.12774798967498
  I           1.46562382428877      0.55754005447828     -0.38825724240703
  Cl         -3.33342070835087      1.55443045496077     -2.20482607645428
  Cl         -0.74515103324787      2.51979417207088     -3.00451666002505
  Cl         -2.46990903576410      1.22940113707267     -4.93524058470601
