21
Coordinates from ORCA-job NEB E -45.482481176720
  C           0.60963995109855     -1.31868385878615      0.66432053761288
  C          -0.71219696292579     -1.41804433043718      0.20608191510288
  F           0.79198000088211     -1.62278118401356      1.97232432202596
  H           1.45686634940418     -1.64999988642558      0.07776791506474
  C          -0.99426675302491     -1.58872875712944     -1.28611546107891
  C           0.88942783582472      0.65879843556808      0.83844182367084
  C          -0.41135460533704      1.20310539482060      0.81317762207862
  C          -1.37612577764137      0.67018264332599      1.65002136487475
  O          -1.66850458776180     -1.01329435119182      0.92357652347546
  O           1.86818643146987      0.98507231577261     -0.02748258821645
  H           1.33469608176579      0.49166945438293      1.81676406181158
  H          -0.73991582192655      1.70850380473870     -0.08338467419102
  H          -2.38793402314158      1.03667437939089      1.58981027381012
  H          -1.08159493376502      0.28202369918578      2.61397995296510
  Cl          0.44182101128124     -1.92032693314547     -2.26126569059531
  Cl         -2.11739000002822     -2.96349032075968     -1.45675112308101
  Cl         -1.79925289483888     -0.13806055824780     -1.94000745755091
  C           1.52272102628954      1.54246478670243     -1.28287049658103
  H           1.17155412270384      2.57154875303416     -1.16951015332913
  H           0.76150021083543      0.94768949981064     -1.79116129951778
  H           2.44014333883588      1.53567701340388     -1.86771736835137
