21
Coordinates from ORCA-job NEB_reactant E -45.518972303820
  C           1.21097393175505      0.30521612901343     -0.03732304130595
  C           1.61738202825066      0.76521651385832     -1.22128618617919
  F           1.36841433250840      0.97103263191021      1.12291889101957
  H           0.71807576593275     -0.64036264046780      0.10575056509087
  C           1.41308027663494     -0.03560676908690     -2.48236756523753
  C           4.52976238921193      4.28427191857507     -0.96430998936415
  C           3.24527755201417      4.00887912022760     -1.16451862053487
  C           2.56606752451697      2.85416078772892     -0.50586255043366
  O           2.24042013563732      1.91557257400480     -1.53878258566798
  O           5.26759002318775      5.27804712782954     -1.49115589309366
  H           5.13451898309497      3.69807263571683     -0.28417706382078
  H           2.63355059200463      4.57438001304544     -1.84823404829574
  H           1.64247734922748      3.17716224158364     -0.01056687573328
  H           3.22486640924344      2.38316652305450      0.23032261967011
  Cl          3.00672054959889     -0.38453716871525     -3.20092783921781
  Cl          0.56890345051998     -1.56187063733736     -2.23663859719867
  Cl          0.47550923006031      0.94194891577008     -3.63816420482880
  C           4.64306128295858      6.13887891383547     -2.41732214638849
  H           5.40655857323427      6.84839203049305     -2.73057880079344
  H           3.80973900889908      6.67680198724035     -1.95552979942863
  H           4.27785061150843      5.58447715172006     -3.28664626825790
