21
Coordinates from ORCA-job NEB_product E -45.512811031360
  C           2.77727575618681      1.60780952676147     -0.81388112716701
  C           1.67585034432961      1.46426052770147     -1.85578396585456
  F           2.25131026771719      1.39531561810817      0.43310787976508
  H           3.57056850601645      0.86801258183214     -0.95886578321406
  C           2.00265102920215      0.52001222147304     -3.02296777538645
  C           3.33904333041314      3.05189904016731     -0.90019788117935
  C           2.35185019667676      4.03022220553924     -0.32538032596288
  C           2.57424024956881      4.71803030323700      0.77805978724431
  O           0.60558449721529      1.98319133649090     -1.77080143783904
  O           3.59093771148317      3.26856539884913     -2.27423005184545
  H           4.28109503101811      3.09536885019308     -0.32778085657499
  H           1.43143578245361      4.12839097958573     -0.88196226754554
  H           1.84477650580979      5.40364952201144      1.17199541953010
  H           3.48959389581622      4.61589079616048      1.33849544975908
  Cl          3.65660989067346      0.64361406961029     -3.61052131223467
  Cl          1.74847311157358     -1.09947825116990     -2.30047076700560
  Cl          0.87424380910969      0.76249916317775     -4.35267754888668
  C           4.28484368330736      4.46747968314051     -2.53717074390446
  H           5.25787628721030      4.47338541979854     -2.03295441394917
  H           3.71036005025265      5.34156086045003     -2.21519130863118
  H           4.43078006396586      4.49892014688219     -3.61432096911747
