23
Coordinates from ORCA-job NEB_product E -43.723094703500
  C           2.51510781038102     -0.18903969188321      1.65785928275258
  C           1.80166183166708      1.09794323896638      2.04413513440024
  I           0.92772153554685     -1.48771865518490      0.95332997678325
  H           3.14088359837473     -0.02124047653534      0.78100736304117
  C           1.40606841586728      1.97328784763582      0.88291150148690
  C           3.33272755586311     -0.77512589381384      2.81529713816767
  C           2.57273360019778     -1.77679579816979      3.64505282817852
  C           1.91963536158192     -1.45214058154258      4.74396374192630
  O           1.62489307790439      1.40362251348289      3.19369524436549
  C           4.64058131621275     -1.38071082532788      2.31419218268422
  H           3.59542087978034      0.07096191415581      3.46449602692349
  H           2.57773518342690     -2.79158039066890      3.27283368178137
  H           1.90186946362501     -0.44120047891676      5.11562325919226
  H           1.35937278792873     -2.18409608070199      5.29889319196181
  C           2.55679657595959      2.94734734742979      0.60735408997782
  H           0.51382044688541      2.53857948411993      1.15549224909848
  H           1.19928955718292      1.38147397554813     -0.00892922684633
  H           2.76235503901142      3.54690133894799      1.49084404680764
  H           2.28795970390120      3.61229966732129     -0.20900130888696
  H           3.46436816077091      2.41300410080883      0.33335799614857
  Cl          5.64701977426036     -0.13075142145846      1.52614135227377
  Cl          5.56356020922968     -2.03781168260567      3.68772710121810
  Cl          4.36071811444060     -2.68410945160755      1.14112314656362
