24
Coordinates from ORCA-job NEB E -43.462092075130
  C           0.47720586892386      0.27853174233614      0.33007330843605
  C          -0.24957185931855     -0.32862828770396      1.37523949137192
  C           0.12254782099882      1.68582812800055     -0.11377386531485
  H           1.55496659054032      0.17855623661253      0.46053911570428
  C           0.45232692329530     -1.06513556309601      2.35742937020926
  C          -0.06401971686586     -0.77825408586606     -1.18500922428095
  C          -1.20577024595543     -1.50526374217292     -0.82072436510181
  C          -2.17940918414497     -0.74082514600469     -0.04479732811824
  O          -1.55330874510788     -0.56355135563700      1.28502366949579
  C           1.12509309742415     -1.54789977802235     -1.68392890782361
  H          -0.25761949464551      0.08641823540862     -1.81716646451902
  H          -1.08868242246490     -2.54243637762466     -0.52756515346067
  H          -3.09833160395902     -1.27705995231750      0.18171607696051
  H          -2.40472033356647      0.24289616502022     -0.46515331174888
  C           0.57280720539633      2.67517245732320      0.96044336889439
  H          -0.95090069439934      1.79767849773324     -0.27112486340839
  H           0.64177079177182      1.92227132619493     -1.04538899192559
  H           0.06165928362224      2.48266400263618      1.90106233218776
  H           0.34759404941460      3.68999298537195      0.64274284617049
  H           1.64415663299919      2.59687407340316      1.12888191323921
  N           1.03639498622108     -1.57384559011021      3.20613252799732
  Br          0.64416738999690     -2.51448235843690     -3.33448695297176
  Br          2.59643473316906     -0.34935618418725     -2.14488988803984
  Br          1.77520892665425     -2.85014542886122     -0.37527470395336
