24
Coordinates from ORCA-job NEB_reactant E -43.497103376140
  C           1.75560042307399     -0.29820979101656      0.04275602324926
  C           1.12433780447089     -1.45975894027963      0.26603180326594
  C           1.98050580960793      0.52630375816328     -1.18346629637318
  H           2.21927108577991      0.12835661845041      0.92468919966752
  C           1.14298396534025     -1.92749765928062      1.61566104835894
  C           1.93034884789923     -1.96674442235024     -3.82510689080390
  C           1.68814245166400     -2.35811064134627     -2.58378469366529
  C           0.35782001184728     -2.20059487419965     -1.91106662231141
  O           0.42346403150234     -2.33714549434527     -0.51695413793875
  C           3.21156546672147     -2.10053987133974     -4.54858265007459
  H           1.15412769116930     -1.49965123627635     -4.42062185041306
  H           2.44866838642949     -2.83291247737720     -1.97784188675910
  H          -0.29448571731881     -3.02743298897398     -2.22116795596375
  H          -0.13245626235050     -1.26138468634044     -2.20072943684930
  C           3.48011508604717      0.67447028791342     -1.45241998398298
  H           1.56121751618829      1.52043302314952     -0.99912994406513
  H           1.49276326699264      0.12272223195212     -2.06696156265412
  H           3.97656659500861      1.13385814919077     -0.60153444886782
  H           3.64550704258029      1.29743816114254     -2.32782008888416
  H           3.93744435493859     -0.29750041025064     -1.62533494151107
  N           1.17344231365253     -2.27905245595212      2.70487116575989
  Br          2.95550049856715     -3.25610142658827     -6.13686093717221
  Br          3.77548397357092     -0.32025712379856     -5.19227819907655
  Br          4.66876535661703     -2.83648773024653     -3.49994671293518
