17
Coordinates from ORCA-job NEB E -25.960443873200
  C           0.51104182444269      0.71885847522662      1.08256183861988
  C          -0.72505539679231      0.12457368944648      0.80098279067186
  Cl          0.65632524991813      2.46116890280391      0.97385316846001
  H           1.08176242812504      0.34950857976000      1.92727708771826
  C          -1.00471691859573     -1.25970699027317      1.32310637854676
  C           1.46209392018944      0.14581952739775     -0.49685338485910
  C           0.66821076504183      0.63662646599975     -1.52786366922815
  C          -0.66825598022363      0.14125056340606     -1.62450372235156
  O          -1.38680171372921      0.53902248881942     -0.24760228158680
  H           2.43962956247383      0.58588604040942     -0.35669578892022
  H           1.43566997661801     -0.91729799338478     -0.28990453002945
  H           0.86417748974304      1.62990782130383     -1.90352140114417
  H          -0.77653289562990     -0.94261149290926     -1.62037619828929
  H          -1.30589824367762      0.61294498592824     -2.36281250172860
  H          -0.67093575644634     -2.00958212453639      0.60061107462807
  H          -2.07738870809029     -1.38309770111665      1.45218755644574
  H          -0.50332560336699     -1.43327123828125      2.26955358304677
