17
Coordinates from ORCA-job NEB_reactant E -25.992711130850
  C           2.29051928259284     -0.19165853050922     -0.55699159899694
  C           1.54427225477435     -1.00381319464528     -1.30312516946911
  Cl          3.19313099007090      1.20796163993505     -1.04190095279288
  H           2.38476591305578     -0.37710269605606      0.49900013062722
  C           0.82748677073733     -2.15632254207005     -0.64985450001811
  C           4.32269620119353      0.34835503458209     -4.06518047835499
  C           3.37902528800023     -0.50352748666015     -3.71591292445666
  C           1.93487853757245     -0.13817361879913     -3.53148243023528
  O           1.26097474846742     -0.99691714660124     -2.62733585672811
  H           5.34273476335826      0.03753789125022     -4.20900088613503
  H           4.11316785423543      1.39385212509106     -4.21956922980708
  H           3.59911088915682     -1.55093079779734     -3.55745363088260
  H           1.40022129436334     -0.29562883414658     -4.47678238379925
  H           1.82317385966820      0.91172171467478     -3.24439926911948
  H           1.20844319606344     -3.09439993006132     -1.04885539240291
  H          -0.23199651634811     -2.09914864724554     -0.88924410965867
  H           0.95719467303780     -2.14350498094129      0.42618868222987
