17
Coordinates from ORCA-job NEB_product E -26.006639340970
  C           3.12749565004838     -0.92020547742333     -1.22206232834655
  C           1.61088120538870     -0.88513359335123     -1.05464476044150
  Cl          3.87864651653812      0.25040650857227     -0.09670465662313
  H           3.52119971652989     -1.90384869259651     -0.95512162308790
  C           0.93844630576316     -2.18453728492115     -1.41396266474320
  C           3.50583209881141     -0.57221908456257     -2.66960170755982
  C           2.87878485720620      0.71274153607392     -3.11567751332134
  C           2.06802676019013      0.81947424989989     -4.15012195709069
  O           1.01679583961434      0.08640996517131     -0.68055610114710
  H           4.59442508434343     -0.48720685396862     -2.72372803640393
  H           3.19203188488125     -1.39045851739252     -3.32204708326527
  H           3.12579958999777      1.57717769659116     -2.51654232014070
  H           1.80339185184405     -0.03076674355408     -4.75867698272831
  H           1.63795335712636      1.76237154274400     -4.43863493941805
  H           1.33547962282433     -2.58313148687113     -2.34340106189560
  H          -0.13394842502925     -2.03354648817070     -1.49956940048169
  H           1.13105808392171     -2.90772727624070     -0.62304686330521
