17
Coordinates from ORCA-job NEB_product E -30.046826925130
  C           2.53723948174684      1.93588487042086      0.09595546368711
  C           1.28560295129845      1.78020868929488     -0.77061484889581
  N           3.04022489179797      0.80019176917223      0.78603863374307
  H           3.31762897829154      2.29790843970039     -0.58963921894014
  I           0.24715895707361     -0.11216994489331     -0.52431562462526
  C           2.19926790645755      3.08968131970103      1.09066458581274
  C           1.12684785475224      2.68232923116565      2.06891576360422
  C          -0.11897519583290      3.10940105847064      1.99339337150245
  O           0.85256906778604      2.58691778548265     -1.51549421120759
  C           3.40170223358344      3.46044328191244      1.80410596369227
  H           1.86395144144191      3.95650021585983      0.50805961783503
  H           1.44174272703049      2.00792903855571      2.85317880653278
  H          -0.44600023880947      3.79015372899824      1.22336612137927
  H          -0.86769092692642      2.79057255396934      2.69745832039271
  H           3.38995394260056      0.07991682055735      0.16939675998679
  H           2.38077608225049      0.40194469346374      1.44200232951456
  N           4.33939984545766      3.76788644816835      2.37822816598581
