17
Coordinates from ORCA-job NEB_reactant E -30.036935421790
  C           1.30111280763382     -0.29198070221602      0.01269772250138
  C           1.32191017902042      0.95805162839697     -0.45082261889288
  N           1.89217824647224     -0.68205364752513      1.19562875442799
  H           0.75323693362543     -1.05533323390740     -0.51615484070732
  I           0.20425922577921      1.44201619285563     -2.21158614615012
  C           2.01695904876536      4.76714059250658      2.28767096805434
  C           2.22948749848418      4.05328835090827      1.18389462653812
  C           1.29005491398374      3.02040039109966      0.66838857139153
  O           2.04794136378812      1.96223111650583      0.09705643434169
  C           2.91870259042778      5.75291322392120      2.73327689814163
  H           1.13316630138686      4.63225925944777      2.89855444208160
  H           3.12126287300484      4.19888423195406      0.58997914481160
  H           0.65456530202265      3.46670910005512     -0.11696605172963
  H           0.63236567019281      2.63660120332194      1.46107497211647
  H           2.20315247091412     -1.63941878026511      1.23438465706189
  H           2.55904082478268     -0.02210533789499      1.56921086397589
  N           3.64640374971574      6.55399641083563      3.11151160203581
