17
Coordinates from ORCA-job NEB E -37.289898295520
  C           0.30480978586680      0.59720802975389      1.04853596828568
  C          -0.12749987904083     -0.69186437733301      1.38885127720124
  N          -0.69626825447101      1.64734327246246      1.03456227569189
  H           1.24563625997848      0.95535249138421      1.45297969949199
  Br          1.23073863625463     -1.80382160609772      2.25529088453575
  C           0.53460183065298      0.35463983793965     -0.99015005404213
  C           0.05429093793766     -0.92712195852453     -1.26816946278189
  C          -1.25564144730137     -1.22985444923242     -0.87496567459164
  O          -1.10559715366266     -1.27680553229551      0.90148950768312
  C           1.91517569613697      0.63436298797712     -1.17985321767722
  H          -0.12281157331235      1.19203773455352     -1.20142122566432
  H           0.77050324566716     -1.73270920914794     -1.37223799710983
  H          -1.63284345778666     -2.23097571779358     -1.02430433436510
  H          -2.00228751019440     -0.44493908564909     -0.90973278333569
  O          -0.35617495714057      2.69975487039662      1.51818685919618
  O          -1.78317925365599      1.40519566416744      0.56049812039408
  N           3.02654709407119      0.85219704743889     -1.33955984291209
