17
Coordinates from ORCA-job NEB_reactant E -37.329793555430
  C           1.88807635404718      0.02419175722791     -0.31273217611307
  C           1.59157309842869     -1.27072407047116     -0.54147498017273
  N           1.48236478520474      1.15075393465259     -1.06553362081526
  H           2.49786967758356      0.28243183381901      0.53961207371628
  Br          2.12476657116557     -2.51641942418403      0.79783336358724
  C           2.40735894529037      0.19109096090136     -4.06600554179854
  C           2.25197285234783     -0.94026763777787     -3.38179301312551
  C           0.93368064941473     -1.40806689790320     -2.85324846360466
  O           1.04253003164550     -1.93721838469530     -1.52781433039078
  C           3.65820003003589      0.58860515134293     -4.58131819671617
  H           1.58011586929487      0.86181344045029     -4.26076766340677
  H           3.09695795986580     -1.58899016942676     -3.18546782487332
  H           0.57458279723879     -2.26385242254145     -3.43506143945171
  H           0.19071727903906     -0.60293614641653     -2.88366876852487
  O           2.16401540602071      2.14734756104371     -0.96458982670371
  O           0.46635527736069      1.07409099927633     -1.73789722973857
  N           4.67386241601601      0.91114951470215     -5.00157236186784
