32
Coordinates from ORCA-job P E -39.137002892800
  C          -1.40071822576941      0.12783049205321     -2.49718392923962
  C          -0.58384978143461     -1.47510987713959     -0.42053366304107
  C          -2.01902348439684     -1.52857031356411     -0.83124211054695
  C          -2.41235940108248     -0.75771519065352     -1.83254713592615
  C          -0.62649793784302      0.89056902705488     -1.40604937542971
  C          -0.13625913194315     -0.00577108799895     -0.24794189700313
  H          -2.69264596034460     -2.18256314102485     -0.29918626210335
  H          -3.43336248831581     -0.73126305225297     -2.18123485390743
  C          -2.05522102988600      1.07452974933871     -3.50619472737704
  H          -0.41093553654821     -2.01797745844251      0.50934517717594
  H          -0.68776773386442     -0.51145180425006     -3.03575592502975
  H           0.03256141164172     -1.93928061715812     -1.19664709093122
  H          -1.28907814386395      1.65976258748004     -1.00398318868746
  H          -0.58918765245036      0.35535246026232      0.68083894739297
  H           0.22703211232354      1.39797823265973     -1.85621037633991
  C           1.36163655484204      0.04137420615936     -0.08896101569518
  C          -1.05074983661838      1.86313838003805     -4.33862202085371
  H          -2.71123111722904      1.76807979566831     -2.97440548494516
  H          -2.67813398861177      0.48012914075404     -4.17976524915053
  H          -0.47868158007634      2.54898881037612     -3.71916847265971
  H          -1.56738977635057      2.44565621149704     -5.09830287378361
  H          -0.35765010625391      1.18954666199717     -4.83890403948948
  C           1.93463560456147      0.34087122972987      1.13968544536780
  C           3.30982850595327      0.36646048081127      1.29505905034714
  C           4.13497061147707      0.08990259031275      0.21955275509678
  C           3.57539469944394     -0.21249964574197     -1.01047702275281
  C           2.20142248348149     -0.23715767323066     -1.16177178247399
  H           1.29713538340360      0.55860453246028      1.98541238502232
  H           3.73738754970722      0.60357901772543      2.25859694596356
  H           5.20838112786579      0.10973131723637      0.33792503412099
  H           4.21325977226383     -0.43053101556751     -1.85510529694605
  H           1.77753709591789     -0.47413404659015     -2.12707194617449
