32
Coordinates from ORCA-job R E -39.050502868420
  C          -0.74983412246642     -0.16734511731814     -2.56709957475763
  C           0.21101039357991     -3.01330301363847     -2.16370246624550
  C          -1.04928156567202     -2.59252047649879     -2.13026673893977
  C          -1.51555049720087     -1.24307814972008     -2.39292249681699
  C          -1.28331716381867      1.84838563723213      1.07100631888997
  C          -0.65525925399064      0.70217912431363      0.83907856164768
  H          -1.83072882859363     -3.30505156410689     -1.89411310160898
  H          -2.59232368420482     -1.12640211926761     -2.43002575514273
  C          -1.27098321979967      1.21083519356757     -2.80687872078778
  H           0.46714208697002     -4.03762436556093     -1.95274543916739
  H           0.32661422490598     -0.24935091450704     -2.51991604683005
  H           1.03011445909590     -2.35762548140648     -2.40278929433929
  H          -2.27204638320886      1.86936770241328      1.49632097068333
  H          -1.15032414370909     -0.22802195122314      1.08983848018424
  H          -0.84258888490166      2.80854237914499      0.86165023819030
  C           0.67647920347607      0.54006363443685      0.26811962942785
  C          -0.44524374884890      1.94992917571007     -3.85665269243700
  H          -1.22541285474463      1.76691784650308     -1.86441126862705
  H          -2.31840133830468      1.16748905004103     -3.11356850495992
  H           0.59266667431876      2.02127866857102     -3.53808901390388
  H          -0.83061312113376      2.95582645599532     -4.00767555524591
  H          -0.47830102792186      1.42133615022515     -4.80683319398050
  C           1.38862670473520      1.59369736761383     -0.30656432374617
  C           2.63875657281897      1.38461388348639     -0.85556156295432
  C           3.20991362770876      0.12224445623747     -0.83649530657212
  C           2.51814284455849     -0.93207854517088     -0.26363912566237
  C           1.26373488973364     -0.72587783758262      0.27731768517852
  H           0.95771924629804      2.58280196174024     -0.33765927229331
  H           3.17278164431157      2.21037585779161     -1.30416816432266
  H           4.18709658719657     -0.03825655249688     -1.26811622423134
  H           2.95626760520887     -1.91957354900689     -0.24478276162913
  H           0.72399307360343     -1.55570490751884      0.71057472099987
