32
Coordinates from ORCA-job TS E -39.035479284010
  C          -1.61379848591627      0.13441581504291     -1.29576679155496
  C          -0.28637635222459     -2.21811975422168     -0.26500640120297
  C          -1.60280601636809     -2.19204630654897     -0.56684084982882
  C          -2.25013619050637     -1.06145822161554     -1.11507569773566
  C          -1.18740207314862      0.57578310075637      0.80247495025252
  C          -0.35454174840829     -0.36009250611327      1.34472647873318
  H          -2.23394668695570     -3.00825177406733     -0.23916926436190
  H          -3.32958933146446     -1.09185928041958     -1.19052636482832
  C          -2.35217624932692      1.33612747500704     -1.82300848064072
  H           0.14278912470895     -3.05300407717455      0.26372921586379
  H          -0.54792654479890      0.13849633658578     -1.46654401396606
  H           0.42040828624124     -1.55102399221348     -0.72097518539000
  H          -2.22933478316440      0.57000525588572      1.07410690146650
  H          -0.77763730171010     -1.13353592040617      1.96908579181407
  H          -0.79750007112818      1.52384947420234      0.47905981423247
  C           1.09734148106235     -0.26719097316243      1.35955014816765
  C          -1.43054457015423      2.49646821841425     -2.18036994846512
  H          -3.09473495725735      1.66743563582995     -1.09222517068768
  H          -2.90387574884181      1.03752510129710     -2.72031777212057
  H          -0.90601317194125      2.86740717172624     -1.30244062880399
  H          -2.00299339844959      3.32001442284929     -2.60145324681982
  H          -0.69180488725884      2.18334943371021     -2.91544873038695
  C           1.80822551328522      0.62275640304920      0.55062382389325
  C           3.18744073806197      0.67915890336889      0.59953004147474
  C           3.89355904515558     -0.14731848717556      1.45789165970895
  C           3.20463695939967     -1.03599324514732      2.26736892700540
  C           1.82661145891447     -1.09722374081843      2.21515985224896
  H           1.28016741005921      1.27298266555755     -0.13083008272483
  H           3.71784070404595      1.37274519484552     -0.03775139077423
  H           4.97195362642927     -0.10075620714823      1.49385181997036
  H           3.74706316731487     -1.68546096866967      2.93961650411882
  H           1.29510105434519     -1.79518515322615      2.84697409134194
