19
Coordinates from ORCA-job NEB E -36.048622781130
  C           0.61457298664359      0.96958204569095      0.47484645467010
  C          -0.67547695016318      0.42330528215656      0.61818779353181
  N           0.81547434125067      2.03991053384166     -0.38220968286788
  H           1.28822332319000      0.93381259493166      1.32350761077128
  C          -0.97709892919366     -0.40898865992873      1.84290241136400
  C           1.34567049746776     -0.56144451849900     -0.70246745782830
  C           0.27707421129267     -1.35927558997768     -1.08708213665840
  C          -0.81518701378894     -0.76693301184409     -1.71853451587113
  O          -1.45615668648175      0.30463659530531     -0.37400760546814
  H           2.11563948803262     -0.99847268667591     -0.08376982758471
  H           1.69214673561298      0.18310502657005     -1.40177268247283
  H           0.10994589728617     -2.29211184944700     -0.56094512260974
  H          -1.69819120671861     -1.35184499358380     -1.92477276259867
  H          -0.63994588585855      0.05395655284457     -2.39885186852386
  H          -0.00922738517268      2.33204486017006     -0.88446603314009
  H           1.39040744073676      2.78962654193363     -0.03985618421762
  Br         -2.59023840029157     -1.43133987126726      1.55999906150160
  Br          0.45439161191822     -1.66038269639169      2.37057295820591
  Br         -1.24202407576252      0.80081384417071      3.36871958979669
