19
Coordinates from ORCA-job NEB_reactant E -36.088448911760
  C           2.13213962778890     -0.20708796202773      0.13604483539017
  C           1.54680547766607     -1.41880803600715      0.09832062511167
  N           2.22703308795908      0.62637469375661     -0.94018265965306
  H           2.61558107922109      0.13087018899184      1.04139187830891
  C           1.50878411695935     -2.29566464404377      1.29580528134298
  C           3.56527162922344     -4.04214251980638     -1.52235090709671
  C           2.28980412323014     -3.78126183084200     -1.73948994326783
  C           1.76965653262516     -2.41188566808295     -2.05811882879579
  O           0.91259127820044     -1.89461472777484     -1.02859408883064
  H           3.90915880276701     -5.03213285127227     -1.27831877370428
  H           4.32146781150340     -3.27517930540245     -1.57987536624952
  H           1.53832732844171     -4.55483368747598     -1.66647072714116
  H           1.12689613099437     -2.44701516083240     -2.94255304886904
  H           2.60186915958064     -1.71953039198983     -2.23230031629313
  H           1.58625872490587      0.43927805639575     -1.69711584264498
  H           2.39678119918333      1.59957865781786     -0.75146059686441
  Br          0.30373098589746     -3.77251857543911      1.04310963910915
  Br          3.31628903238759     -3.04817758842329      1.73917913635201
  Br          0.93745387146494     -1.32804864754192      2.90557970379565
