19
Coordinates from ORCA-job NEB_product E -36.088265434860
  C           2.65845966965174     -1.47393169983652     -0.16199944419872
  C           1.32723598212053     -1.85743494366974      0.45576288519907
  N           2.53383935096802     -0.28344330846207     -0.96937548667351
  H           3.40503646978571     -1.28092592451165      0.61690937686394
  C           1.33859094268449     -2.23683294211306      1.93546239579628
  C           3.16410509717418     -2.63501298451943     -1.05609726981291
  C           2.14112664238274     -3.06233953791358     -2.06249243618898
  C           2.14701172156405     -2.66530056908925     -3.32174863950048
  O           0.27541593097342     -1.80105278509320     -0.11718103364756
  H           3.45138315536032     -3.47908820827406     -0.42704539209445
  H           4.04987979199065     -2.25371796041464     -1.56522955265236
  H           1.35908065365957     -3.71739850076075     -1.70194054031826
  H           1.39182762715282     -2.98125954953424     -4.02046174289362
  H           2.91488243021339     -2.01283367975362     -3.70471526487870
  H           1.89517322169913     -0.44681326747430     -1.74109833628767
  H           2.19631650401517      0.50490859893912     -0.42880179415736
  Br         -0.38033709787170     -2.96677953691339      2.45463182485628
  Br          2.74365595399795     -3.48731252120932      2.39374981331270
  Br          1.64631595247781     -0.54863067939628      2.89017063727630
