23
Coordinates from ORCA-job R E -40.911107518400
  C          -1.46652862225776      0.03486836450960     -2.69097407843737
  C          -0.25911437405866     -2.69717044462226     -2.30840675598201
  C          -1.51470497356564     -2.35268119729622     -2.04348353822627
  C          -2.12572076714864     -1.08450813033860     -2.39325691787961
  C          -0.54622317854336      1.72676565166313      0.00009613128026
  C          -0.01632001340817      0.54442862746218      0.26247378782413
  H          -2.17223194665597     -3.05756722231370     -1.55167259230913
  H          -3.20862304235081     -1.06714485612210     -2.39093025259790
  C          -2.20186349934433      1.28136801266047     -3.05528009818781
  H           0.13041070105730     -3.66159865054173     -2.03044406157852
  H          -0.39268104858176      0.12040887644190     -2.67862802957828
  H           0.41614140310365     -2.03777373834621     -2.82515969398339
  H          -1.39214389612990      2.08461375853816      0.55403735787664
  H          -0.40077810806272     -0.09793109953575      1.04830863104841
  H          -0.15144127600361      2.35771136689142     -0.77506937000727
  O           1.03324020714292      0.04132879385191     -0.44749560348593
  F          -2.86114301781585      1.16834458085249     -4.22955432434825
  F          -3.13877315101014      1.62413350858920     -2.15024591810052
  F          -1.39087718585151      2.33867831192504     -3.18504194849549
  C           1.62401617870807     -1.11869873819225      0.08483305999542
  H           2.07152197774640     -0.92368405953905      1.06519405206347
  H           2.40568144125550     -1.41555018667755     -0.61215007135945
  H           0.89277619177498     -1.92957152986007      0.17783023446889
