21
Coordinates from ORCA-job NEB E -29.161624836460
  C           0.56436993244356      0.04724195434691      0.82325588838835
  C           1.11927389791826     -1.08632685827156      0.25946285428088
  C          -0.84254157821494      0.00141350313706      1.36478345507298
  H           1.24998185478750      0.67364947318738      1.38166815500243
  O           2.48510518705798     -1.17010832909171      0.19635868570743
  C           0.38771998415908      0.98845422472458     -1.00253416056059
  C          -0.39796510188440      0.10598315444517     -1.70464424756885
  C           0.14934671967922     -1.19442424584441     -1.96109480738828
  O           0.43582665645870     -1.86979881598546     -0.52670825446882
  H          -0.01265087349686      1.94536764372514     -0.70952841617686
  H           1.45396196004656      0.99935197305413     -1.18054966879010
  H          -1.47277249742301      0.20390412919593     -1.66825095598584
  H           1.14226736517633     -1.19965109926766     -2.40941496792419
  H          -0.50993633143589     -1.91827272716507     -2.42578783424589
  C          -1.43118870068235      1.37084853289323      1.67969969078933
  H          -0.80901718711774     -0.57802357211163      2.29367410021003
  H          -1.48529986826565     -0.53873688348518      0.66886669536180
  H          -0.75158573619657      1.94257171669188      2.30784755511149
  H          -2.37311648264774      1.25509298830156      2.21099978533654
  H          -1.62465832656211      1.93673648450585      0.77299444775690
  H           2.72287912620007     -1.91527324698613     -0.37109799990877
