21
Coordinates from ORCA-job NEB_reactant E -29.184553490940
  C           2.09406756255393      0.03050418711087     -0.08312892605918
  C           2.76308032409147      0.02809803406463     -1.23508328436687
  C           1.36445295862136      1.22285185135110      0.45408462484895
  H           2.10980299915570     -0.85685493251672      0.53268437376714
  O           3.43816847202584     -1.06579137642752     -1.71242756014918
  C           1.86574983516748      0.82162729639805     -5.38601835659398
  C           2.27723170665743      0.32217647243798     -4.23701939740477
  C           3.29534362589651      0.97649187137905     -3.35140878125954
  O           2.83468126478792      1.12979304836475     -2.01568549217686
  H           1.14102393870451      0.31451304558593     -5.99960857195152
  H           2.24517361262735      1.75574127749609     -5.76676169692329
  H           1.88631236585303     -0.61458332141758     -3.86400287789252
  H           3.50727221546159      1.99367835667861     -3.68884037658318
  H           4.22349855973059      0.39005543630264     -3.36098190532493
  C           2.08395875232197      1.82473170360536      1.66176060892197
  H           0.35556733510120      0.92500596259882      0.75353463281237
  H           1.28518442096799      1.97116222011195     -0.33412282752046
  H           2.17545685104012      1.08817660662711      2.45755426453575
  H           1.53330402462311      2.68062335279761      2.04526126400765
  H           3.08138454250137      2.15198696980295      1.37865003674300
  H           3.38028463210951     -1.77608806235167     -1.06583975143054
