21
Coordinates from ORCA-job NEB_product E -29.212977796710
  C           2.41877750176499      0.12556794278015     -1.09877971323223
  C           1.02124827340164     -0.47131461671246     -1.26688407066516
  C           2.44841390847544      1.06965418896855      0.10809830359286
  H           3.08388917881092     -0.72242258455777     -0.88382698513741
  O           0.83666857245840     -1.20198453107815     -2.37944712022843
  C           2.89641248413252      0.80718351219232     -2.39900674299774
  C           1.81314403845843      1.62092175041751     -3.03920623313205
  C           1.42293713919581      1.48724677328848     -4.29260261659950
  O           0.14035168714533     -0.35397683263251     -0.46617078133159
  H           3.73189120430087      1.46487080908829     -2.14567643386971
  H           3.27949574851647      0.07156011840990     -3.11347066860979
  H           1.34102651196692      2.35226391404434     -2.39811315379173
  H           1.87403607712734      0.76951648158298     -4.96013784174331
  H           0.64179842591801      2.09571283153207     -4.71304287547934
  C           3.85080953001363      1.26093535305569      0.67105763505550
  H           1.80213766972263      0.65146021456182      0.88136694916098
  H           2.02957188556396      2.03586911798335     -0.17590010637729
  H           4.26763457783746      0.30918786751741      0.99420771136675
  H           3.81992758780812      1.92731560455315      1.52914102510774
  H           4.52181354779223      1.69513170450099     -0.06755492054867
  H           1.59641444958889     -1.16929961949610     -2.97505136053989
