18
Coordinates from ORCA-job NEB_reactant E -42.926402841450
  C           2.22849680782313      0.51607015163727      0.33553839332520
  C           1.63326452474021      0.75568382880014     -0.83073117812977
  F           2.70812183886072      1.48089574952351      1.15967347687787
  H           2.36966210091812     -0.48030820148160      0.71155470155542
  O           1.18053700183078     -0.29373325966786     -1.55152014882672
  C           4.21151273730592      3.72715896350473     -0.23052318488680
  C           3.38729902581557      3.21131812087028     -1.12595165833893
  C           1.90163320375128      3.13792508596680     -0.95447385515973
  O           1.36632488972540      1.93066897845691     -1.46582976547703
  C           5.68817426982810      3.81819980821534     -0.44845316244097
  H           3.88235895605821      4.12297734867180      0.71760546694058
  H           3.76303144166184      2.80486416744109     -2.05613211511125
  H           1.43245507260604      3.91515998939872     -1.56813394551523
  H           1.61349086567762      3.28882596296916      0.08961769152700
  H           0.76850186209879      0.05228386371780     -2.35519697695537
  F           6.09660883032558      3.24016226122102     -1.58669969835846
  F           6.10309300867523      5.09917006543964     -0.50558279484693
  F           6.38403356229748      3.24587711531526      0.54523875382113
