18
Coordinates from ORCA-job NEB E -42.953188917320
  C          -0.15558702320203     -1.17084960579600      0.59626160894949
  C          -1.17780027750122     -0.84345026164071     -0.32213669254223
  I          -0.68045197253360     -1.07043072090971      2.64565379186800
  H           0.42224663364630     -2.06465335352568      0.37356363297164
  N          -1.00906065139449     -1.34070305123003     -1.67693374518131
  C           0.97909650901728      0.26465229364929      0.21218309902395
  C           0.16971027504381      1.40346591075729      0.35304810149973
  C          -0.98087058227044      1.53581890758377     -0.49686927723869
  O          -1.83395054340803      0.26750522937227     -0.19278466031567
  N           2.09173479183596      0.15822232339654      1.16166355610703
  H           1.31223125307163     -0.05259557282629     -0.77512883176440
  H           0.18660116036519      1.90732183152453      1.31117503312278
  H          -0.80688685111956      1.46172688413149     -1.57191050515398
  H          -1.64357465073377      2.36026164617067     -0.25515402479501
  O          -1.53757437416363     -0.69994489003205     -2.55968151583953
  O          -0.33754156163994     -2.34374136489936     -1.82296114429135
  O           1.89225568146558      0.55374396457643      2.28201583932516
  O           3.10942218352096     -0.32635017030246      0.73799573425439
