18
Coordinates from ORCA-job NEB_reactant E -42.984014467920
  C           0.92544359559151     -0.43840936464804     -0.20685108659802
  C           1.29004913863660      0.65128560993934     -0.89286161397180
  I           1.45217639351542     -0.65657821795098      1.78535281599250
  H           0.32455135694014     -1.21428725489624     -0.64764784182844
  N           0.85871770196408      0.76431023752552     -2.27938228436461
  C           4.99486820120546      3.56619405243387     -0.27224060626478
  C           3.79561192082977      3.06304118187627     -0.01096753927677
  C           2.89242144569343      2.44679091422287     -1.02112756625693
  O           1.92213565298800      1.67692667724234     -0.31282677146593
  N           5.78370342821698      4.17218179369996      0.76555256848261
  H           5.47616869448793      3.57501531840449     -1.23833730699718
  H           3.41239065108780      3.10365716886806      1.00197669126306
  H           3.45502460529110      1.82360671792720     -1.72582790524567
  H           2.39050997891527      3.24090775987015     -1.59222472018588
  O           0.92581898401894      1.86135648225380     -2.79086074683191
  O           0.45958860809204     -0.24321104530580     -2.81837190519486
  O           5.31794789179749      4.22952624344041      1.88048447447607
  O           6.87397175072806      4.58398572509677      0.43836134426850
