18
Coordinates from ORCA-job NEB_product E -42.982971453830
  C           2.90537602685476      1.01400075599829     -0.45082005643707
  C           1.73503409816866      1.05696564440493     -1.36768408411091
  I           1.87611583666302      0.59031613413819      1.42071664611057
  H           3.52794955855698      0.13679479385355     -0.64257201265390
  N           1.22745113563173     -0.36168931974059     -1.74513557531607
  C           3.71445025137705      2.30684482177831     -0.46464749332720
  C           2.95708059966949      3.51985372006687     -0.00855152100002
  C           2.76113992819478      4.58147526259134     -0.76593327786727
  O           1.14640557451285      1.98181684815475     -1.81528233701830
  N           4.90445927713911      2.13899639078721      0.43464370122170
  H           4.11137372979088      2.45690695538296     -1.47639144991078
  H           2.59699175516592      3.47453324903207      1.01033179515180
  H           3.12176913630506      4.63968063687158     -1.77937435427500
  H           2.21331450939108      5.43176358938204     -0.40153648763520
  O           0.22098073837698     -0.38704236260001     -2.39049443762550
  O           1.90234802415178     -1.29436387342075     -1.38312712358623
  O           4.68165613147763      1.92083369670207      1.59554550646637
  O           5.98510368857223      2.24351305661721     -0.08078743818698
