19
Coordinates from ORCA-job NEB E -34.551137103720
  C          -0.47246847205844     -0.23808170244101      1.50735585283520
  C          -0.66335376816888     -1.46089543012087      0.87117799132366
  C          -1.61376412657821      0.51248064441100      1.85968247117400
  H           0.39232002950700     -0.09172460869196      2.13998385481136
  Cl          0.75050801833636     -2.56048552777130      0.95014234347049
  C           0.04048349371921      0.97159214837063     -0.25559787427118
  C          -0.26242903350044      0.08372975035158     -1.29382112827969
  C          -1.53097457345431     -0.44134995002459     -1.40389051439799
  O          -1.53566444365697     -1.72494522549884      0.04444036867397
  O           1.25467789664462      1.43015973230554      0.04310832190302
  H          -0.71308348444443      1.68937074802101      0.05054672529129
  H           0.54910969808928     -0.43757285903191     -1.78212440914339
  H          -1.75646185029397     -1.15105432801472     -2.18157882019894
  H          -2.37218662637574      0.09546985687481     -0.99355921903823
  N          -2.52744860026502      1.14686596963377      2.13817113072568
  C           2.38934104921164      0.67719373550092     -0.35595555236285
  H           2.54687114476688      0.74793059933033     -1.43502600711570
  H           2.28766731701038     -0.37098583378304     -0.06464350977641
  H           3.23685633151105      1.12230228057866      0.16158797437571
