19
Coordinates from ORCA-job NEB_product E -34.583300653800
  C           2.52705421136847      0.74853308753621     -0.88241722351442
  C           1.40461276790584     -0.25902179242943     -0.85017421989866
  C           2.50541453509203      1.45512315694458      0.38095911504067
  H           3.48926627527121      0.23401594840989     -0.97110660439377
  Cl          1.89710749643362     -1.76721721969153     -0.08071676730886
  C           2.32178345702793      1.75019809512619     -2.06873911679461
  C           2.38542331564750      0.97414746957855     -3.35758224486601
  C           1.44301873616523      1.02291260550569     -4.27880369224802
  O           0.30036660165171     -0.11603108212341     -1.24864168334604
  O           3.20502253499350      2.84183573084793     -1.99382432738831
  H           1.33039170410885      2.20449688457361     -1.95995990772075
  H           3.26366642237318      0.35664568834798     -3.49514521985555
  H           1.51346923378166      0.45592400310102     -5.19128182145269
  H           0.56066981799996      1.62708558981543     -4.15358937068957
  N           2.49399609585863      2.02196369272215      1.37116025115060
  C           4.55783623414405      2.60726407134679     -2.31890870691660
  H           4.67907077026334      2.33024655594676     -3.37068442875256
  H           5.01292013819588      1.84068961701769     -1.68340547044545
  H           5.06240965171741      3.55438789742391     -2.13943856059939
