19
Coordinates from ORCA-job NEB E -28.939085627340
  C           0.86258204681444      0.11490249152851     -0.66721799849055
  C           0.26132363456705      1.16282473637052      0.04339617969244
  C           0.25825142430203     -0.30865292971199     -1.97955906971892
  H           1.94837871899542      0.08209932271830     -0.64817423708836
  N           0.97582856575613      1.83373479546124      1.02514644732940
  C           0.30167456737782     -1.28937725317338      0.60716352737391
  C          -1.08415753558327     -1.19860454590156      0.63386362194135
  C          -1.61409349259324      0.05097895305275      1.08492095337032
  O          -1.03940788254400      1.21557551156661      0.13118972286653
  Br          1.08990257329028     -2.91548690115207     -0.02356808190065
  H           0.87441022135053     -0.91864320196300      1.44997367805470
  H          -1.66196370599044     -1.78806693663572     -0.06132649650640
  H          -1.24894079371777      0.39055297390185      2.05312378104856
  H          -2.68581762456666      0.17461976295053      0.98460093191761
  H          -0.82607499558063     -0.24561532794392     -1.93555857761834
  H           0.55272075801187     -1.32233585843088     -2.24100164330394
  H           0.60856312266931      0.35454672741680     -2.77070234734281
  H           0.47836944129325      2.58944751810004      1.47007775615795
  H           1.94845095614788      2.01750016184538      0.84365185221719
