19
Coordinates from ORCA-job NEB_product E -28.996516320600
  C           1.53530472391636     -1.36128696509289      0.94461947998391
  C           0.79559123210832     -0.03772478852239      1.16694261016909
  C           1.21191185106523     -1.90565812740349     -0.44335371596167
  H           2.61494337921195     -1.19921995504692      1.03394928278814
  N           1.52649326792862      0.90928792242760      1.79894440485548
  C           1.09280935184344     -2.28884220326893      2.08174303351658
  C          -0.33547518071719     -2.69422862081870      2.02515395542867
  C          -1.19631182802509     -2.43839573528737      2.99266248905061
  O          -0.35526961067648      0.13831471121530      0.84634301655477
  Br          2.21717678470648     -3.93279208474977      2.04892864323545
  H           1.32524337177173     -1.83042265496315      3.04699341979426
  H          -0.63844786955325     -3.23472091752238      1.14070445378770
  H          -0.91065030454248     -1.90756886918660      3.88663324464854
  H          -2.22716057911149     -2.73711105693964      2.92330360685319
  H           0.14118683023046     -1.84966327423842     -0.62325174118191
  H           1.54671791064231     -2.93605174568313     -0.54197645637465
  H           1.71460683103893     -1.30698668359145     -1.19967766674075
  H           1.10403900487931      1.80788611750532      1.96770264897301
  H           2.49999083328283      0.79208493116700      2.01573529061958
