19
Coordinates from ORCA-job NEB_reactant E -28.959492602990
  C           1.43164693221357     -0.37626484280350      0.10402919452054
  C           1.27467590979081     -0.19338442532480      1.41399794661181
  C           1.94348917770148     -1.63614878331701     -0.51371246987848
  H           1.18043947910914      0.43107681688175     -0.56776413478391
  N           0.68118372018943      0.93940094911157      1.98876797416590
  C          -0.35270165319601     -3.93775017053916      2.45055107649876
  C          -0.21855985090352     -2.64632360021563      2.21767401447448
  C           0.60975738669601     -1.73597785179638      3.07478552894528
  O           1.66461291044110     -1.14528679773949      2.33270065593967
  Br         -1.38904791312450     -5.07121388847821      1.34647535474727
  H           0.09281671224903     -4.45437367103581      3.28578401771436
  H          -0.67827960334209     -2.18044513044335      1.35723198890656
  H           1.09550932154161     -2.28930276164596      3.88207922012371
  H          -0.03751955533624     -0.95666417384569      3.50103144758303
  H           2.16058871386365     -2.37266247476533      0.25506442582311
  H           2.85556178213031     -1.44094863741886     -1.07740678699463
  H           1.20820401819109     -2.04816680724628     -1.20585116144254
  H           1.11160313155645      1.20943047272905      2.86374902200103
  H           0.61031938022866      1.71730577789309      1.35011268504406
