18
Coordinates from ORCA-job NEB E -38.187722721640
  C           0.53164707805151      0.40959241075458     -0.95836579916925
  C          -0.80829658132175      0.70586749782836     -1.20866253243461
  C           1.03747006937905     -0.97695011184966     -1.31599941536658
  H           1.27826924306984      1.15390177811559     -1.21870963629638
  I          -1.27670186752980      2.80933958474185     -1.45235268765977
  C           0.43673166617825      0.45692734382706      1.02059209509672
  C          -0.62109510315346     -0.41510229518016      1.30266944234263
  C          -1.91267403493397     -0.07883390110411      0.81862420884363
  O          -1.75269220978447     -0.04426329717003     -0.82262568083869
  C           1.74093900315144      0.12664771552976      1.49161825704490
  H           0.24794832529597      1.52868010142959      1.06771965145766
  H          -0.39965951950640     -1.44812741227252      1.52473675776946
  H          -2.25581995205100      0.94102993003068      0.98343873584901
  H          -2.69361580771150     -0.81596318776193      0.95290615255083
  F           2.32892991550154     -1.12305140754476     -0.95368446173731
  F           0.35512242073024     -1.98156368733080     -0.73118937706797
  H           0.98467771782655     -1.13611719518507     -2.40793977987095
  N           2.77881963680795     -0.11201386685842      1.90722406948665
