18
Coordinates from ORCA-job NEB_product E -38.227521286670
  C           2.17492016801763      0.63907906982568      1.79005992896967
  C           1.19820958275836      1.50841013527305      1.03537829570428
  C           2.47457450531941     -0.70513927004529      1.10348042364199
  H           3.12516238905266      1.19406880267005      1.81966020100604
  I           1.40431435656676      1.49979864732097     -1.11347965296745
  C           1.64950493241257      0.46748290488314      3.24161636378497
  C           0.48891017095892     -0.49511646603232      3.32040112096870
  C          -0.75426005964382     -0.10286688078241      3.52059836259766
  O           0.37768498493650      2.20624154367934      1.52270043517929
  C           2.71717298576276      0.03807638503603      4.12182661341671
  H           1.31955653966678      1.45583516367304      3.58782389334899
  H           0.73963706613876     -1.54095598936912      3.21324889347556
  H          -1.01537640700783      0.93617142748413      3.63744330241844
  H          -1.56432674586578     -0.80952713172869      3.56913537374619
  F           3.48419727902623     -0.56131280205350      0.21934157367824
  F           2.89591125885593     -1.62511064970363      1.99281055489360
  H           1.60791911858214     -1.12671661147763      0.56966028868499
  N           3.54918787446205     -0.28341827865284      4.83379402745212
