18
Coordinates from ORCA-job NEB_reactant E -38.213799657020
  C           1.94551499061689      0.05987910783479      0.09320148713857
  C           1.54111066699054      0.87241227963424      1.06082542122119
  C           1.21736886831875     -1.21410882158087     -0.21789474672255
  H           2.81769696237545      0.26897763146075     -0.50291705405454
  I           2.61374364691342      2.68015876347817      1.43407685902855
  C           1.08033422495478      1.09743271350681      5.09899192923476
  C           1.49550919782183      0.46033229518236      4.00614542994912
  C           0.55874420157745     -0.11521809356462      2.98993220166286
  O           0.44815475968506      0.70413568242250      1.81389469021645
  C           1.97552269459268      1.63681973922885      6.04568008225421
  H           0.02907582673720      1.23020230744286      5.32159700276376
  H           2.55386698316813      0.35049406638024      3.80836797313795
  H          -0.46277983300352     -0.15527984997364      3.37404751084353
  H           0.88905162992138     -1.12221659975108      2.70585633514737
  F           1.46079100025266     -1.60393811694790     -1.48409084581167
  F           1.65297163888416     -2.23206694177566      0.58191321136974
  H           0.12699541281887     -1.13684158089749     -0.07990978982218
  N           2.69212712737428      2.07972541791968      6.82218230244287
