21
Coordinates from ORCA-job NEB_product E -29.178447068560
  C           2.46354913438736     -0.01535633220867      1.52679346099668
  C           1.24559239848974      0.83343884520377      1.76450685098017
  C           2.26760632026803     -0.88275812117865      0.27468135052065
  H           3.28690872841895      0.68342365728923      1.32464543840361
  H           0.87237737685043      1.31767075428375      0.83924795853673
  C           2.85502344614059     -0.79127174254545      2.80332394521376
  C           2.10159706424641     -2.08726438293872      2.93990870015628
  C           0.95288318872008     -2.20416147757868      3.57822130571101
  O           0.69767506384925      1.01833357362695      2.81431695022432
  O           4.25652163445325     -1.00086380288055      2.76448240977832
  H           2.60273316362405     -0.14180511787329      3.65747413667195
  H           2.57730584576826     -2.94202908800127      2.47636696485517
  H           0.47878690704345     -1.35372453773090      4.03899627740319
  H           0.43552362063211     -3.14579437791276      3.65081509182297
  C           3.57912199453933     -1.46095678985041     -0.24132959827916
  H           1.81573109879888     -0.26752972531304     -0.50810016991559
  H           1.56800856971363     -1.68800549746231      0.50717085391134
  H           4.24177656389467     -0.66354059577334     -0.56929787267435
  H           3.39258377836457     -2.12423101052240     -1.08287589406518
  H           4.08679365868176     -2.01753669912501      0.53985874677450
  H           4.51780044311519     -1.47223753150826      3.56209309297361
