18
Coordinates from ORCA-job NEB E -43.118943307610
  C           0.82338607344443     -0.33011907314593     -0.04350039012252
  C          -0.41889805597207     -1.10905704082847     -0.42392935248328
  C           1.11127223743870     -0.50633757637657      1.46404391335229
  H           1.69938117003362     -0.74902815308509     -0.55400192277124
  C          -0.50351846404224     -2.46772789190824     -0.14319063872761
  C           0.65099229601508      1.16294789074779     -0.46943734692751
  C          -0.73949596025440      1.59426185772429     -0.20934588722110
  C          -1.67379992962619      0.88358563564908     -1.08370228824296
  O          -1.46310697345785     -0.57826306702844     -1.02758700355673
  Cl          1.86117654006235      2.21784611019469      0.32179713812008
  H           0.86124304244903      1.21041512869968     -1.54508142754991
  H          -1.02570085697671      1.85517748545630      0.79431560514364
  H          -1.53434832620926      1.12972081823998     -2.14534440464957
  H          -2.72138526051080      1.02454502924204     -0.81470771052666
  F           2.35614895986825     -0.14916144963625      1.78265878276763
  F           0.27834464758111      0.20412966940962      2.23023905028558
  F           0.99106905799374     -1.78123183667998      1.85718710360665
  N          -0.55276019783681     -3.61170353667451      0.00958677950322
