18
Coordinates from ORCA-job NEB_reactant E -43.181425151500
  C           1.92448996513274      0.02524459459441     -0.16350226214162
  C           1.45033726585431      0.15584560224951     -1.41913611692250
  C           1.77293825167564      0.90938537494623      1.02658564972650
  H           2.49296392418073     -0.86558944984283      0.05692330123023
  C           1.77574173431871     -0.94165438095009     -2.29035323074549
  C           1.35018021168318      4.31288291665861     -2.70756535742471
  C           1.49719470862601      3.32287776467187     -1.84197826521872
  C           0.39574067022892      2.34862819122766     -1.54528779998141
  O           0.71252628910634      1.05665456137892     -2.06149231134629
  Cl          2.59810296736404      5.42801502119829     -3.06254243880871
  H           0.43013259392407      4.50175000426852     -3.24065136513534
  H           2.43700077234001      3.16896731746453     -1.33357452827826
  H          -0.51445778175595      2.63083957043440     -2.07994443389365
  H           0.17754719578819      2.31384266618821     -0.47674124926001
  F           2.38953086343920      0.37711779468916      2.08624805625003
  F           2.29218296924958      2.14443331722269      0.87159524203753
  F           0.48752567718568      1.10114097668253      1.39882529120887
  N           2.03942172165859     -1.81978184308262     -2.97220818129644
