23
Coordinates from ORCA-job NEB E -53.853472545620
  C          -0.10586571749913      0.77475376562302     -0.66043488182830
  C           0.82884285670402     -0.19955097545910     -1.13770989901958
  C           0.28528619752845      2.18892133459826     -0.36445700105378
  H          -0.95834310439156      0.80265061729585     -1.34075261419759
  C           2.28785332442252     -0.28920782818138     -0.73489484725695
  C          -1.14081663848054     -0.20685969059853      0.68161341168553
  C          -1.05640767107458     -1.56042694135846      0.25454995836419
  C          -1.19024853442589     -1.88296289919198     -1.08596468550206
  O           0.34730838031053     -1.20617272146934     -1.73056442082142
  C          -0.85731889740526     -0.06271467139174      2.16420950499823
  H          -2.05833100753146      0.32671904470421      0.43859866542015
  H          -0.44918298791162     -2.22886903598024      0.85345340855917
  H          -1.87612378703133     -1.32229252959207     -1.70692981133745
  H          -1.05091714950374     -2.90788483041688     -1.39167263510655
  Br         -1.33729697396631      3.25930570233216     -0.03848170022579
  Br          1.55087912395277      2.47219596071624      1.06762040312134
  Br          1.05944685805546      2.98818674729200     -2.02396037183053
  F           2.96531525816592      0.86187998311364     -1.02126544494633
  H           2.75492640515589     -1.09855951656833     -1.30391143689564
  H           2.40235581018419     -0.47221281116453      0.34095884323986
  Br         -1.18090197383000      1.68282541995571      2.94933974316588
  Br         -2.14418699722057     -1.26268717483443      3.10560948073109
  Br          0.92372722579225     -0.65703694942408      2.68504633073650
