23
Coordinates from ORCA-job NEB_reactant E -53.912621440630
  C           1.34501366377363     -0.51081085675093     -0.05199533757136
  C           1.94153408352288     -1.52073401401763      0.60625553391481
  C           1.94807293255001      0.30739123999075     -1.11571856961589
  H           0.32414453989185     -0.25279406151935      0.18433067227669
  C           3.36580054661483     -1.97031830022976      0.37488236761905
  C          -1.11563815581830     -2.79796744375224      4.00274681410209
  C          -0.33015535117177     -3.04744888895823      2.96787454325477
  C           0.02242547763856     -2.02474824278727      1.93615573437168
  O           1.36623496363473     -2.25385882707823      1.56437421508811
  C          -1.53050541053356     -3.77030676683776      5.03712931085431
  H          -1.53927122794101     -1.81202373186569      4.15633466457312
  H           0.11418120147584     -4.01853021711532      2.79950763135595
  H          -0.10492614340867     -1.00678539822237      2.32664988006824
  H          -0.63550640642656     -2.15497643757562      1.06257155179915
  Br          0.72274650298302      1.72158446845942     -1.66056267523588
  Br          3.63356081579460      1.19363896431042     -0.57038712129375
  Br          2.36457767648587     -0.74943192519383     -2.75839648315412
  F           3.57949617172349     -3.18252007128497      0.95578515451653
  H           4.07340239218382     -1.26557807043333      0.83012261851906
  H           3.58682254989107     -2.08145571601718     -0.69265341452759
  Br         -3.50199105352368     -3.91084765161479      5.02714905265556
  Br         -0.80610559735873     -5.55498404194970      4.82169364981152
  Br         -0.98491417198191     -3.09939400955639      6.80955020661795
