23
Coordinates from ORCA-job NEB_product E -53.897692582620
  C           1.01879090147933     -1.46648586254573      1.13364604879346
  C           2.13030708332482     -2.55575225930631      1.18996945262753
  C           1.45000698841045     -0.00540436749525      1.03670608097558
  H           0.56450334678978     -1.67266964338495      0.14889130120075
  C           3.59522079965578     -2.19249625300062      1.37365839636342
  C          -0.17536185867773     -1.80683987544395      2.08908287197491
  C          -0.67434713284180     -3.19297871418961      1.74077126655384
  C          -1.65212830489623     -3.39831828668690      0.87877529061566
  O           1.80750232464160     -3.69279821825160      1.00248437178596
  C           0.01175251977767     -1.70608132555899      3.60343978242791
  H          -0.98372824634376     -1.10475096718381      1.84094605514181
  H          -0.18195783117806     -4.02192605803831      2.22671821261438
  H          -2.15675907485534     -2.58929482024640      0.37478805221080
  H          -1.98730954947030     -4.39243545429071      0.64639925581181
  Br         -0.10805944495766      1.19554356350808      0.93262041963794
  Br          2.63124867999677      0.66970119621256      2.43119692184895
  Br          2.38470829456581      0.26620090604058     -0.69134083548042
  F           4.33936827620664     -3.31486427519801      1.17652809389377
  H           3.81170862417023     -1.84421591199205      2.38858238513319
  H           3.93583640352113     -1.45599449402017      0.63859345922869
  Br         -0.12067351451065      0.12790654134653      4.28209914935039
  Br         -1.47347421567943     -2.65514592296902      4.48868516914775
  Br          1.66874493087094     -2.50129949730536      4.24855879814196
