18
Coordinates from ORCA-job NEB E -38.971157745030
  C           1.10944669250657     -0.04368647198037     -1.26177636145073
  C           0.97249513117360      1.32080605743843      1.07694413791980
  F           1.14237289991664      0.10220904892755     -2.58979513055812
  H           0.93179343248583      0.91375748633372     -0.74652595073802
  C           0.31730986930824      2.21916360777876      2.09996318623539
  C           0.34905268073289     -1.24794479051898     -0.80259929742828
  C          -1.12145078809351     -1.00730744017111     -1.10856695530648
  C          -2.00691012858101     -0.71261914911278     -0.17715568383947
  O           1.89553169298424      0.58541768700128      1.21862209379000
  C           0.78671967164754     -2.44790189255692     -1.48502652577325
  H           0.49775182222245     -1.37718065039307      0.27378831265883
  H          -1.38234861979981     -1.05974903546915     -2.15599309768074
  H          -1.74533799791448     -0.64655426235722      0.86637159967502
  H          -3.03911278216002     -0.53310894481484     -0.42272955006120
  F          -0.95563701780261      2.49853398303692      1.74617924720832
  F           0.25984122885883      1.66469697780857      3.33315644662332
  H           0.87645917968294      3.17073709581970      2.15988458489089
  N           1.11202303283165     -3.39926930677051     -2.02474105616527
