18
Coordinates from ORCA-job NEB_reactant E -39.127186907870
  C           0.51181610813300      0.04452369917257      0.71295139856178
  C           1.45780809457157     -0.64336452821058      1.35163153251867
  F          -0.28239808886238     -0.46367350724974     -0.25000939761584
  H           0.29236999246855      1.08004480756605      0.91166573980383
  C           2.26986548932645      0.06475974572083      2.41832670524623
  C           1.26520815708642     -5.22654989038343     -0.03358723927212
  C           1.86763131250382     -4.09215994966371      0.31548699578835
  C           1.20906682249081     -2.75367666364185      0.26422144908697
  O           1.84894775799256     -1.92401836511421      1.22124875419154
  C           1.92337170309121     -6.47189351973152     -0.00737657889187
  H           0.23531241406583     -5.25207588809076     -0.36702511745265
  H           2.89460945455860     -4.08477033963588      0.65257689654047
  H           0.13537568278767     -2.83015607576909      0.47535887027589
  H           1.33199223675507     -2.32408146052124     -0.74169890148011
  F           2.10254901802012     -0.53172735624171      3.61897860202197
  F           3.58866716319573     -0.00191792332593      2.13546895500597
  H           1.99595993834264      1.12509559460369      2.52377681724247
  N           2.44044674347233     -7.49475837948348      0.00600451842846
