18
Coordinates from ORCA-job NEB_product E -42.443116132350
  C           2.96638901450336      0.31456399624579     -2.00736471690640
  C           1.80845555641809     -0.65535782934447     -2.11636711486333
  I           3.02709089704651      0.79210113391406      0.11456279630685
  H           3.90844416430007     -0.20289591110725     -2.20716669491316
  C           2.06396781520116     -1.90544661722894     -1.41888901292650
  C           2.78655164350960      1.52697513830201     -2.92487806641323
  C           1.87509102642370      2.58990447318916     -2.36624925552591
  C           0.61232468779486      2.72450686644553     -2.72133933421125
  O           0.79067950548019     -0.43687978321160     -2.71467798807213
  C           4.14392629959201      2.13991108434335     -3.25523321373718
  H           2.37228422697280      1.15626277288633     -3.87238446197305
  H           2.32931550696340      3.24900823749975     -1.63884198066995
  H           0.14803169999359      2.07439165677625     -3.44383316373323
  H          -0.00933884767012      3.48646921128710     -2.28570811195854
  N           2.27559021138673     -2.91013853741199     -0.91519167368629
  F           4.77690956228264      2.62232017291663     -2.18070701326305
  F           4.97319345146482      1.23811198806196     -3.81162320840316
  F           4.03069357833659      3.14559194643634     -4.12800778505047
