21
Coordinates from ORCA-job NEB_product E -50.745348291530
  C           1.20378555678704      1.43567304251182     -0.67108356104567
  C           1.91681518189171      0.79114414708009     -1.86402117114308
  C           1.91093372646774      1.16605695297428      0.66255391823994
  H           0.21306907511735      0.96596985272643     -0.59061956834658
  C           2.30110713213480     -0.70263596888036     -1.69184008994295
  C           1.00910898791611      2.95901633784076     -0.88288306270991
  C          -0.01017319992830      3.24552222305714     -1.96062049115656
  C          -1.14262518561564      3.87730767530378     -1.72207836180675
  O           2.12540549897244      1.36391369712313     -2.88690400350938
  C           2.26463876998225      3.60014544153333     -1.23229897635508
  H           0.66269657434613      3.40372874981352      0.05883940209323
  H           0.25732085721986      2.91471321980249     -2.95290637409668
  H          -1.84902830286451      4.07729989674620     -2.50835900171126
  H          -1.41183815563515      4.22470341579043     -0.73741494569061
  F           3.19741935993999      1.49219933893432      0.65471267263101
  F           1.33478115094946      1.85909859299269      1.65648271377398
  F           1.81540655083886     -0.12399031838029      1.01918354398888
  F           2.53274909442104     -1.23807893890025     -2.90289940758412
  F           3.44330942572307     -0.80548766721050     -0.98138578413225
  H           1.52328167070389     -1.30204352886741     -1.19067180894029
  N           3.23583623063187      4.13474383800840     -1.50128564255589
