21
Coordinates from ORCA-job NEB_reactant E -50.754934523010
  C           1.85378832966646      0.25351056053074     -0.27115677178005
  C           1.14019910630377      0.26522196980513     -1.40259068974993
  C           1.77183442837858      1.12567538250404      0.93480364912492
  H           2.59666005180714     -0.52290983414422     -0.16580576395771
  C           1.46190574023342     -0.81702132496089     -2.43012835280145
  C           0.83571106709240      4.52655466122269     -1.03388418120659
  C           0.73925907580787      3.37213938465186     -1.68837341602201
  C          -0.21596208135312      2.28096796192703     -1.31453547274817
  O           0.15665440330232      1.02911637286696     -1.88251853656114
  C           1.71168040094213      5.55094849716499     -1.44402101459860
  H           0.24620763388085      4.73984719720969     -0.15218094665185
  H           1.34544217186366      3.18008114894833     -2.56360044681429
  H          -1.19141810744797      2.48431428377744     -1.77425084971559
  H          -0.36318959969250      2.21578466739891     -0.23437941726644
  F           2.62259289989992      0.71029795004993      1.87508153447211
  F           2.06407305788356      2.42126686502676      0.70592869016392
  F           0.54872524459042      1.13099715117410      1.51176062793759
  F           2.63755370961451     -0.54174882052480     -3.04041463052783
  F           1.61011840635792     -2.02239346648838     -1.84568788462442
  H           0.67943952644374     -0.88745801093620     -3.19937568448378
  N           2.41352453442492      6.39580740279588     -1.77077044218865
