24
Coordinates from ORCA-job NEB E -41.193482359160
  C           0.27088089853628     -0.00787368130843     -0.72067441839820
  C          -1.00314747184126      0.31488764929633     -1.45756619173046
  C           0.17331443521411     -1.44401310098335     -0.16018863454818
  H           1.10515802000484      0.02440920218494     -1.42656068562736
  C          -0.97947338301307      0.37431018952284     -2.84268994720145
  C           0.39563038337566      1.14587898432301      0.29609631662712
  C          -0.98778296784540      1.62876892122285      0.54523226474579
  C          -2.18154324776126      0.75169867307127      0.39974390215969
  O          -2.20667666477020      0.14468217918783     -0.85596229855075
  C           1.16187834830921      0.94179258598233      1.61879635680149
  H           0.96850715293246      1.93750357114887     -0.20580051352680
  H          -1.08822182675690      2.39842128431322      1.30043819429286
  H          -3.10439609061385      1.33798276351645      0.46664744293321
  H          -2.21824024310158      0.00535640538501      1.21081759791837
  C           1.53371103747450     -2.12178086727027     -0.06008643200378
  H          -0.45450849536513     -2.02881139627435     -0.83837849426974
  H          -0.31096171522598     -1.44483165449864      0.81529757256049
  H           2.01116615872389     -2.16533661106265     -1.03672362597181
  H           1.40763329515286     -3.13829427952414      0.30501543986415
  H           2.19415670467879     -1.59708306990582      0.62215613488183
  N          -0.92910560506310      0.50760029277826     -3.98923263939347
  F           0.62885688744991     -0.03266544798018      2.39386958066312
  F           2.45376981586395      0.59992768836585      1.40270504683090
  H           1.15939457364127      1.86746971850879      2.21704803094299
