24
Coordinates from ORCA-job NEB_reactant E -41.237926396950
  C           1.70814922583849      0.28668136645982      0.09432134485658
  C           1.16312983402046      1.39525820148216     -0.42746968664481
  C           1.85194007668281     -0.21682044647534      1.49403397726145
  H           2.15649045906069     -0.37404538902635     -0.63886915306398
  C           1.22982399570124      1.50906438664615     -1.84958543394217
  C           2.15786720455874      2.84215308090515      3.33579203610401
  C           1.86313416762276      2.96304279293861      2.05262298088238
  C           0.49727406379549      2.74167563313261      1.47579167094332
  O           0.51132409461766      2.47902409738188      0.09485303852099
  C           3.52518317461087      3.07815004132431      3.90002099530401
  H           1.42861236906455      2.54596973658685      4.07602170408783
  H           2.62153727670256      3.25687619646877      1.33892659291753
  H          -0.07407841203865      3.67604824093419      1.55010673734025
  H          -0.05349375552486      1.96692528786285      2.02508871468476
  C           3.33185750831505     -0.36293528072776      1.85643763100619
  H           1.38170140816122     -1.20444188044564      1.54197708432584
  H           1.36261000104137      0.41875385609618      2.22694886304824
  H           3.82895322745395     -1.04174574452038      1.16755021834929
  H           3.43389326974658     -0.75433334120919      2.86533811668598
  H           3.83466422063217      0.59986416310311      1.80916529656798
  N           1.29604842025316      1.57732396726562     -2.99092193573399
  F           3.91299384020098      2.01800906489834      4.65828607551525
  F           4.46179706259027      3.21531709233893      2.93326698476108
  H           3.57548726689246      3.97278487657915      4.54509614622200
