24
Coordinates from ORCA-job NEB_product E -41.244928811910
  C           2.34037035486879      1.71571464260312      0.79990058009535
  C           1.51204635216138      2.22928428597356     -0.36305081973335
  C           2.05974022660188      0.20631616133229      0.95431834882726
  H           3.39180690173100      1.82707898929511      0.50457551228736
  C           1.86650414234300      1.58608135774922     -1.62037663865594
  C           2.06445428497719      2.58729802837532      2.05118430130587
  C           1.25742832927679      1.90614009889949      3.12124002606616
  C          -0.02700162388749      2.13739020318722      3.31482960947887
  O           0.65403738379953      3.07063890810025     -0.30280080611226
  C           3.36527983662350      3.12020638018353      2.65011180962312
  H           1.50614721789125      3.46914428910722      1.71046971885166
  H           1.79561809838749      1.20497435960927      3.74393989629863
  H          -0.57675796220910      2.83143264389908      2.70054277345468
  H          -0.58253504254087      1.63446624331945      4.08737867863178
  C           3.18985392270810     -0.53892330366077      1.65305033487070
  H           1.92819193820244     -0.22720455544824     -0.04116865310016
  H           1.12307997770198      0.07352319216636      1.49939559258140
  H           4.11276434157498     -0.45033901884785      1.08468569781694
  H           2.93772276976705     -1.59342626868897      1.73326807873260
  H           3.36933323640227     -0.15250802033260      2.65108571363879
  N           2.16132952706651      1.10703581131753     -2.61706913750587
  F           4.18701246898709      2.12424433391532      3.06151849643813
  F           4.06990765151231      3.82075249905587      1.72599237477708
  H           3.18946566605292      3.78237873888924      3.51167851133122
