19
Coordinates from ORCA-job NEB_product E -30.193138596980
  C           2.49403514184437     -1.26546019104851     -1.59700240913194
  C           1.31856199279127     -2.09509233016968     -1.04893725438831
  N           2.75032509071230     -0.12304980806692     -0.74575169905412
  H           3.37598014819819     -1.91935754373343     -1.54958959274731
  N           1.09672522009045     -1.89203682037462      0.25894824703430
  C           2.21409660378981     -0.94482736439284     -3.10036601649281
  C           1.14478713771144      0.10640269125577     -3.25259897863974
  C          -0.12517287116555     -0.18571311328336     -3.45731347591646
  O           0.68698659979763     -2.86648603497297     -1.73514173483494
  C           3.43609175789318     -0.50431078295814     -3.72134333831119
  H           1.88210054047374     -1.88147707137096     -3.56207200375190
  H           1.47771182463365      1.13476394171063     -3.17684908586503
  H          -0.46238183466218     -1.20584880486946     -3.53371727616094
  H          -0.87509875743502      0.58226051432454     -3.54329133020378
  H           3.62080555775948      0.32862118194262     -1.00472251583815
  H           2.00347199981566      0.55923940347230     -0.83648278021462
  H           0.37775775578904     -2.41259273650712      0.73219015159076
  H           1.68321401847736     -1.24481593283234      0.75957883940879
  N           4.41620207348519     -0.11651919812552     -4.16643774648263
