19
Coordinates from ORCA-job NEB E -35.687303628050
  C           1.11157274923523      0.11261974496439     -0.44914098786616
  C           0.64059423964867      1.40719971974112     -0.68367408760579
  C           0.77783963165363     -0.93614943205329     -1.47558491853982
  H           2.09990071448439      0.01564231961196     -0.01097517514103
  I           1.61861360577122      3.01374504118395      0.39222474736971
  C          -0.10542498496887     -0.24003712929497      1.06420117210672
  C          -1.36943747190806     -0.02759275389410      0.51197083763510
  C          -1.67923489786426      1.28436652258534      0.07029747958805
  O          -0.54601709015758      1.62833552255954     -1.07328254401812
  N           0.23345038951843     -1.58596954422224      1.47762185243017
  H           0.32045167393802      0.48131647941294      1.75628111703299
  H          -1.88165040217305     -0.87821971877670      0.08626106026902
  H          -1.47709824631547      2.09621110701626      0.76574390943841
  H          -2.60756107879272      1.41632431217453     -0.47042043643737
  H           0.68591654878500     -1.92780031732807     -1.03842161810855
  H           1.58297732689764     -0.97216101049787     -2.20833347998885
  H          -0.14828003986432     -0.69003568859729     -1.98923285871473
  O          -0.26462522021780     -2.50929800842645      0.87487774361144
  O           1.00801255232989     -1.68849716615905      2.39958618693881
