19
Coordinates from ORCA-job NEB_reactant E -35.709539099240
  C           1.75514466348218      0.04757268503260      0.01502517036276
  C           1.65385292665620      0.32618945598592      1.30463993542929
  C           1.46342193252305     -1.29549613039254     -0.56605487032940
  H           2.07865116344692      0.81554229806402     -0.66963930120909
  I           2.10366970280518      2.31651486765030      1.99123198672834
  C          -0.85635432380746     -1.69275498000185      4.84268130620317
  C           0.23739384202458     -1.35015168862227      4.17315183884102
  C           0.30090030079393     -0.29232620466469      3.13310710248362
  O           1.37898771871659     -0.57642528127148      2.26324556337800
  N          -0.81783800893438     -2.71214015908998      5.85118939888491
  H          -1.83556941046835     -1.25978370668605      4.70606696481124
  H           1.17110984452559     -1.85710907288418      4.38589609258676
  H           0.47529902480779      0.68065034110088      3.62692714644605
  H          -0.64231555835033     -0.21920432635519      2.57381040559796
  H           1.10951930142495     -1.98288499072702      0.19709126492214
  H           2.36711549800241     -1.70476782830944     -1.01570213827010
  H           0.71342080644292     -1.20454548565582     -1.35075161995001
  O           0.24101637508802     -3.25008714054384      6.08620444014423
  O          -1.86792579917979     -2.96589265262936      6.39957931293909
