19
Coordinates from ORCA-job NEB_product E -35.730795863880
  C           1.55195901579146     -0.84921463108387      1.92455116868419
  C           1.09791967945129      0.43282037397998      1.28960650329971
  C           1.23365243961159     -2.01930096005329      0.99420912437117
  H           2.63515206330079     -0.79374918983723      2.09272799232616
  I           1.84295218303408      2.20443530555947      2.32128121400060
  C           0.88578118798227     -0.99492117375086      3.30944447253630
  C          -0.60389631821938     -1.13120651946520      3.24897569909623
  C          -1.42824892497917     -0.16125137734538      3.59701571052146
  O           0.42042782410927      0.57304684792032      0.33656463096456
  N           1.49781824159127     -2.17718997306451      4.00064570907371
  H           1.15902575361454     -0.12961072154127      3.92827387757120
  H          -0.97775237077765     -2.08330745836539      2.90262345242051
  H          -1.07500446206641      0.79073005714863      3.95993001958444
  H          -2.49495038522768     -0.27789185193843      3.52841861750977
  H           0.17236960119181     -2.05462852265250      0.76266259797223
  H           1.53414060716161     -2.95899575452020      1.45100562630434
  H           1.77898099999555     -1.90605449589224      0.06043982775977
  O           0.75482510651238     -2.91868218021798      4.58618388069319
  O           2.69644775792238     -2.28232777488006      3.93463987531046
