19
Coordinates from ORCA-job NEB_reactant E -48.557339351880
  C           1.54338226136114      0.16403334984010     -0.92842820071866
  C           2.19848039627580     -0.91663730345196     -1.36055223139130
  C           2.14943863236004      1.36022772838156     -0.28746611446829
  H           0.46947070715156      0.21236346681765     -1.02682367184787
  N           3.67036890682216     -1.07086379409231     -1.22841210289815
  C          -0.24492142513689     -1.72477815027942     -4.71911901701520
  C           0.05584030330827     -1.21913087642768     -3.53295142528847
  C           0.35196330065472     -2.08370965921880     -2.34431139937992
  O           1.72370575345481     -2.00891023418477     -1.95645028421498
  Cl         -0.57908442366094     -0.75153660931839     -6.08405560496987
  H          -0.31839486679193     -2.78562997648717     -4.90758647034287
  H           0.13151337772948     -0.15106428630881     -3.39567520353777
  H           0.20412911050923     -3.13695940714347     -2.58979128804844
  H          -0.28654586306135     -1.81686416914623     -1.49380439879734
  Cl          3.66685211234994      1.86377706835337     -1.08700823690937
  Cl          1.00441065645175      2.71810805846001     -0.39673094302613
  Cl          2.48505756943341      1.05980547362871      1.44693194588979
  O           4.27297115649163     -1.27152150593413     -2.24642666527366
  O           4.11976233429716     -1.01380917348825     -0.11533868776148
