20
Coordinates from ORCA-job NEB E -53.178290039690
  C           0.75291717977411     -0.93902865195812      0.44577529250856
  C          -0.48059274494033     -0.94606528021798      1.12303107034793
  I           2.42642397579051     -0.46936647068403      1.66029153081437
  H           0.98145685516048     -1.78734948412359     -0.18823567579306
  C          -1.59393979958514     -1.81148452724453      0.54634900096338
  C           0.45707087134618      0.50583651526498     -0.73576614446531
  C           0.09602160739132      1.55029718955883      0.13273107207494
  C          -1.08244561989880      1.40139488445143      0.91829145165959
  O          -0.82337228013301      0.08689138940388      1.82457337391496
  C           1.63334261578617      0.70956519121515     -1.66619452581037
  H          -0.35042126686776      0.04036183336220     -1.29761171272857
  H           0.87095278212592      2.21228152778934      0.49116557773052
  H          -1.98982121598149      1.12237040190491      0.38868498650600
  H          -1.25560776357716      2.16497083294205      1.66709878491675
  F          -2.57694499895778     -2.01278177951567      1.41975426839017
  F          -2.16898233750943     -1.25431610931368     -0.55146272411334
  F          -1.14218044853896     -3.00860030525457      0.15213550441421
  Cl          0.98954091074338      1.57282223282348     -3.10562214900395
  Cl          2.93630247376144      1.69401954498251     -0.99238512463034
  Cl          2.32027920411036     -0.83181893538658     -2.23260385769646
