20
Coordinates from ORCA-job NEB_product E -53.218435395930
  C           2.43264450786563      0.90644619557258     -2.33968046622923
  C           1.02699733107423      0.51033943743440     -2.69981343427634
  I           2.42208719620404      0.79479869892841     -0.18091817301050
  H           3.17747891134296      0.18560239047696     -2.67533915366863
  C           0.86404679171795     -0.98646260841672     -3.08803220555336
  C           2.75558664269217      2.31844033267966     -2.83037067055519
  C           3.92347816382885      2.93591241694878     -2.11185445854168
  C           3.88262779620260      4.13815033617715     -1.57058561024250
  O           0.06472586626464      1.21530295666752     -2.60255102468324
  C           3.04592061088556      2.24782445167560     -4.33586279269938
  H           1.86628138373769      2.94567494467279     -2.69386815729514
  H           4.81646105331829      2.32962371603402     -2.06784477314177
  H           2.99931036493714      4.75360607829982     -1.61096245372854
  H           4.73366771746910      4.55183540449734     -1.05955956357541
  F          -0.23876392462516     -1.19209785359049     -3.79748582887592
  F           1.90091214412239     -1.44225755686363     -3.80649974940230
  F           0.79587512842312     -1.74942231827590     -1.98870276984198
  Cl          3.18001724366182      3.88383181128262     -5.00053275452475
  Cl          4.55777941221778      1.37012630455835     -4.66585630035616
  Cl          1.72316565865921      1.38712486124075     -5.18887965979798
