20
Coordinates from ORCA-job NEB_reactant E -53.210433211630
  C           1.58169834686458      0.23015647888889     -0.09840657958842
  C           1.56523629820086      0.03751347422970     -1.41367134909531
  I           2.43439668822194      1.77575648263428      1.03213797237024
  H           1.09605527279964     -0.49082452116443      0.53534128892955
  C           0.84299552859882     -1.19765754064555     -1.94878777574584
  C           3.26353778095687      3.56647108072369     -4.13549763042903
  C           3.18773826429742      2.30564022786131     -3.74105475534948
  C           2.78313790791166      1.89732118073998     -2.36063021851121
  O           2.04279370775631      0.69242845169485     -2.48554186297495
  C           3.69710916214729      4.02594992679226     -5.48026456559246
  H           3.01916504710681      4.38035056309927     -3.46637978531422
  H           3.42287938695789      1.48654351333101     -4.40433997463787
  H           2.18019339305427      2.67638808244310     -1.88353416936929
  H           3.68696222758996      1.71987543200308     -1.76195324483881
  F          -0.21666423554755     -0.85509728537814     -2.68869518164909
  F           1.64608486819555     -1.92902817945392     -2.72583392831766
  F           0.39396953775756     -2.00818078319683     -0.98482503029434
  Cl          2.40183063066928      5.02523142962197     -6.20210189187479
  Cl          5.15466704326459      5.05115187133456     -5.30036572792099
  Cl          4.07691314319625      2.71291011444093     -6.59879558979600
