25
Coordinates from ORCA-job TS E -34.434288317950
  C          -0.69972500297858     -0.08812144411472     -0.85549160655444
  C           0.67232915103213     -2.24572292891539      0.53277693715032
  C          -0.66712093282124     -2.21285757075890      0.35194383515383
  C          -1.33575605975898     -1.18153971182462     -0.34865771390469
  C          -0.03281218118054      0.72868372480099      1.14410241627864
  C           0.69866498661427     -0.19991986112182      1.82036644438601
  H          -1.28594723666057     -2.91040272464447      0.89992588005681
  H          -2.41721149444500     -1.17643034454070     -0.30853809068485
  C          -1.45586087370708      1.01156632058996     -1.54514837118002
  H           1.12567135725519     -2.97693631382479      1.17972843006557
  H           0.34575473750363     -0.16164328822665     -1.11770288617584
  H           1.35064141854551     -1.73068370758856     -0.12346955297996
  H          -1.05111391250706      0.91388220868823      1.43762515465774
  H           0.24019520853885     -0.78199804636551      2.60375035334288
  H           0.43477586400287      1.53015528402943      0.59550967932148
  C           2.16883928541973     -0.29958207597771      1.79042163404715
  C          -0.58047574152939      2.17814366199303     -1.99012176664730
  H          -2.25873333092813      1.37471757807412     -0.89925210660354
  H          -1.93337971479270      0.58167345225677     -2.43241026572677
  H          -0.18141445795675      2.72420045282762     -1.13832154178117
  H          -1.16263184888193      2.87627423139153     -2.58666570097487
  H           0.25019684879739      1.82457655605142     -2.59780263205531
  O           2.80525475967136     -0.89665513973841      2.61737876111940
  O           2.79935947998314      0.33202938921629      0.77274770334589
  H           2.17049969078388      0.78659029772285      0.19730500634304
