19
Coordinates from ORCA-job NEB E -34.105559811560
  C           0.59802107324518      1.44466208362398     -0.21704065680036
  C          -0.43846172242799      0.86978103950376      0.51162281696993
  Cl          0.22439794595551      2.27399694769844     -1.69367754578677
  H           1.42271424661387      1.89478235749177      0.31697475632478
  O          -0.14541552141194      0.67211151194695      1.83160592281814
  C           1.37607479518915     -0.34359786130480     -1.00547272051366
  C           0.22270532886909     -0.81941455807609     -1.61714430901122
  C          -0.87696503922339     -1.18907552308724     -0.82575726127956
  O          -1.41874549722331      0.27528157797779     -0.04247456360719
  O           2.44513409164886      0.08987334977031     -1.70010652580509
  H           1.68040733658352     -0.73251033884479     -0.04029876010003
  H           0.03939199198011     -0.52284987872985     -2.64136803985776
  H          -0.67962608935697     -1.76155430621551      0.07202016447951
  H          -1.79111965801051     -1.46537290141455     -1.32954437500673
  C          -1.03922943004611     -0.13103777278126      2.58372863857279
  H          -1.12016568479531      0.32207441838825      3.57067230669234
  H          -0.64025046617563     -1.14444072577637      2.67983094876664
  H          -2.01972089555299     -0.16803688564258      2.10521330056429
  H           2.16085319413884      0.43532746547178     -2.55878409742005
