19
Coordinates from ORCA-job NEB_product E -34.154086470900
  C           3.60944109618044     -1.00220717587289     -0.25791903675286
  C           2.46156885340915     -1.19479215996179      0.71708957898554
  Cl          3.19052150772228      0.28912803154296     -1.40648258021117
  H           4.51297059362993     -0.69206832997027      0.27221275664864
  O           2.84604383029389     -2.00470562540190      1.70570478347833
  C           3.88487870937909     -2.32147416762814     -1.02727318591958
  C           2.61214750635065     -2.80119944731864     -1.67348602253839
  C           1.91932118038018     -3.83841367831570     -1.24591680329120
  O           1.36793877489953     -0.71797372031361      0.61759720717099
  O           4.92862605861272     -2.15332935558140     -1.94045874886639
  H           4.23930418179144     -3.05750591304183     -0.29708344985042
  H           2.28564455879100     -2.22351649467793     -2.52720700192737
  H           2.23854756071791     -4.42333662856214     -0.39848727035933
  H           1.00573621392662     -4.14595172737295     -1.72452420356102
  C           1.84837342963037     -2.31889984198688      2.67333818522460
  H           2.32329148538906     -2.98251967972310      3.39063326448482
  H           1.00069277905055     -2.81024740183967      2.19262634837255
  H           1.49745752758293     -1.40913938437983      3.16335574777095
  H           4.67709415226229     -1.45614729959429     -2.56301956885870
