24
Coordinates from ORCA-job NEB E -36.982452172950
  C          -0.45930625467017      1.15029924531953      0.15992850866238
  C          -1.31470604118088      0.55455004358750      1.09968007434477
  C          -1.03356088750527      1.77698596668533     -0.97232342800465
  H           0.42196536262702      1.65424183682868      0.53919332183023
  C          -0.80592671166455      0.32149535671308      2.51032764879494
  C           0.24430952132242     -0.51093365626736     -0.81993846883558
  C          -0.61783606080143     -1.53443000732267     -0.42199074195308
  C          -1.99492778560411     -1.33346739858524     -0.53627212753466
  O          -2.32656214158163     -0.12901752653022      0.74233922604890
  C           1.71340293059338     -0.59347842017275     -0.49323907413674
  H           0.02982522335404     -0.05761779992498     -1.78160203834884
  H          -0.26930249455065     -2.22081495082335      0.34176635366789
  H          -2.67570738080859     -2.09848238992083     -0.19522708797999
  H          -2.35726931673803     -0.74703400934611     -1.37070255208673
  N          -1.48888498725121      2.29692316973838     -1.88616893493830
  F           0.30700277454058      1.06654303736371      2.79176114197473
  H          -0.53224448489094     -0.73596296839375      2.63026852820729
  H          -1.57614599056997      0.58129356568259      3.24338374321112
  C           2.54292386027755      0.46740898034190     -1.20666477161307
  H           2.06751307252037     -1.58318721376716     -0.79821693503053
  H           1.86264111604349     -0.52159159595912      0.58691165414070
  H           2.23263232543502      1.46991707079394     -0.92255097810520
  H           3.59472328205628      0.35416345475272     -0.95580152193902
  H           2.43544106904728      0.37219620920619     -2.28486154037658
