24
Coordinates from ORCA-job NEB_reactant E -37.027614626400
  C           2.01004987459241     -0.13986778933568      0.12819919513223
  C           1.52190011545551     -1.22630393195611      0.74963810824150
  C           2.25925863491065      0.04609992681359     -1.23615422204471
  H           2.21837263939712      0.73295526934992      0.73242763753437
  C           1.26787631508811     -1.21941141124620      2.23971029318338
  C           3.68458156570251     -2.67484529034879     -2.29107221344759
  C           2.97240155321730     -3.03998031444353     -1.23922924028852
  C           1.50252171692324     -2.78376530144814     -1.07905970586863
  O           1.16811167454879     -2.42558530985203      0.25901814348818
  C           5.14730522355666     -2.92379354087255     -2.45494195704317
  H           3.21409982023168     -2.12789309102987     -3.09682964962682
  H           3.42590246905508     -3.57815985492330     -0.41664124648812
  H           0.93776239823593     -3.70865824438910     -1.24275534079567
  H           1.15352279539272     -2.02498074720211     -1.78553543543527
  N           2.46575222005019      0.28506824553318     -2.34121153140176
  F           1.44567989633327      0.01680361394631      2.79001085375797
  H           1.95937632920532     -1.90428446712896      2.74491167077960
  H           0.23709302471570     -1.52989839836667      2.44359969811158
  C           5.90363729814536     -1.59914173289494     -2.55663989188618
  H           5.31089223202674     -3.49833590320216     -3.37071928584363
  H           5.52713442580847     -3.50670673459539     -1.61363730989272
  H           5.77649176789021     -1.02211304708184     -1.64375199885944
  H           6.96492890905626     -1.77752219203253     -2.71187277411282
  H           5.52254710046078     -1.00837975329309     -3.38556379719373
