24
Coordinates from ORCA-job NEB_product E -37.027914394650
  C           2.98504246727024     -0.82770506101383     -0.47758197297494
  C           1.57711477266617     -0.97825160500049      0.09539397786440
  C           3.03861236156002      0.43671572602122     -1.17039789486640
  H           3.73252517643992     -0.83053495183276      0.32163188145041
  C           1.48049873031421     -1.28804615173469      1.58214686414621
  C           3.23340619173147     -2.03328699882693     -1.42837735436926
  C           2.75089761794182     -3.27916902110340     -0.73872516080327
  C           1.77432710239765     -4.04486545139730     -1.18627931721423
  O           0.58138304352541     -0.86444765662618     -0.56371146499631
  C           4.71762927083357     -2.19468461893644     -1.77855845467262
  H           2.65168831775749     -1.87487806967370     -2.34180544424157
  H           3.27527767787611     -3.52928219870643      0.17519629562157
  H           1.46484881065126     -4.93538499994439     -0.66617766465550
  H           1.23998343865524     -3.81044648009605     -2.09206182757614
  N           3.04559281971336      1.44967285008011     -1.69932862800766
  F           2.68656134395968     -1.57717502322393      2.15702585866829
  H           0.82089796852906     -2.14806683318093      1.73677848239153
  H           1.06798942911125     -0.41471342365041      2.10152956720953
  C           5.28010372292920     -1.06851351303219     -2.63569821552692
  H           4.81987143213534     -3.13889175275122     -2.31979776593144
  H           5.29818756199283     -2.28106504636071     -0.85630848537857
  H           5.29877081990623     -0.12689378618500     -2.09352319803453
  H           6.29776355324432     -1.30663509721114     -2.93630309306984
  H           4.68072636885813     -0.93255083561320     -3.53286698503274
