17
Coordinates from ORCA-job NEB E -30.082391671840
  C          -1.27872929339369     -1.52245075725081      1.29697121722770
  C          -0.21736420179388     -0.88392848639080      1.75729800514689
  Cl         -1.03033412058246     -3.48493728804141      1.61828127217748
  H          -2.18862721788356     -2.92210932779289      1.25153493294044
  F           0.92470377393699     -1.46229267052620      2.28265502053062
  C          -0.19581280544293      0.68341107806406     -1.05827883837484
  C           0.86345260840451      1.04418182781227     -0.35441617524983
  C           0.92488658660335      1.07375889655975      1.14537547059708
  O          -0.18982648244603      0.45877021494822      1.78364620923917
  C          -0.24729654465598      0.65031410853889     -2.54790466907917
  H          -1.09969462098151      0.37893373529726     -0.54708622543712
  H           1.78019605188743      1.35526219367661     -0.83839651907731
  H           0.90776323162197      2.10872866071638      1.50372823786445
  H           1.86043687608792      0.60944744728843      1.48767124593882
  H          -0.44378944664326     -0.36450981454699     -2.89263000208570
  H           0.68844483629685      0.99502289313969     -2.98136132296450
  H          -1.05840923101571      1.28239728850751     -2.90708785939419
