17
Coordinates from ORCA-job NEB_product E -30.243503607370
  C           1.89746251482652      1.01965238302730     -2.10240049230336
  C           0.57655397116828      0.46502960704869     -2.54977263174875
  Cl          1.70751912749009      1.08078398498503     -0.30982391282574
  H           2.70804571796087      0.31693295488847     -2.30868665669865
  F           0.60592662493211     -0.89490080477020     -2.56895790442794
  C           2.17962655797887      2.41355053121886     -2.66652354892096
  C           3.39249789141389      2.99979180394121     -2.00329772858246
  C           3.39039020574877      4.12789101293898     -1.32098390185632
  O          -0.41688273397404      1.03106857521590     -2.83289375628735
  C           2.39917904027733      2.30944945036040     -4.17882420538512
  H           1.30941170027400      3.04667173077591     -2.47013528167382
  H           4.30401219626220      2.43038021616001     -2.12803949515195
  H           2.49179716572624      4.70686030248023     -1.18548746052248
  H           4.28411335525453      4.52037706789604     -0.86773692102663
  H           1.51324464971135      1.91571255625456     -4.67053065276949
  H           3.24311423237054      1.65970899525922     -4.40097100733178
  H           2.60858778257842      3.29573963231937     -4.58403444248720
