17
Coordinates from ORCA-job NEB_reactant E -30.224251723480
  C           1.13632594796289      0.09093103438861     -0.82955756511182
  C           2.12489476415929      0.97512841601669     -0.92901551525937
  Cl         -0.48453579198857      0.59464524472274     -0.57582583864168
  H           1.31043567550777     -0.96773528255069     -0.88600967389029
  F           3.37508703362801      0.50897004929917     -1.14926135171614
  C           2.20903377170897      2.62072824625579     -3.62370636433024
  C           3.12524458377844      3.12061388256576     -2.81233093047008
  C           3.05469391737704      3.10954326848712     -1.31238085118841
  O           2.01322577443990      2.29109006356263     -0.78944267982855
  C           2.30336782461582      2.63496991318582     -5.11063542970820
  H           1.31459278861815      2.16331550001502     -3.22102452021623
  H           4.01859123060316      3.58820835181286     -3.20286606631546
  H           2.82385199753819      4.11052359020051     -0.93403906250445
  H           4.02267308895383      2.79826910946120     -0.89860978769994
  H           2.28032838848334      1.61614353560438     -5.49598831117946
  H           3.21965428094910      3.11698088790690     -5.44161376877040
  H           1.45053472366468      3.16527418906551     -5.53279228316927
