24
Coordinates from ORCA-job P E -34.678153041500
  C          -1.35634574886756      0.36659733442531     -2.39909420820336
  C          -0.15456108844835     -1.68942122120575     -1.04215726074170
  C          -1.52360988309205     -1.91254373192441     -1.60096508970093
  C          -2.10491172964385     -0.92305331367555     -2.26011940985756
  C          -0.80274930895974      0.79016685639924     -1.02615882785449
  C          -0.11514836114263     -0.35239306078233     -0.26302076706031
  H          -1.99851320654348     -2.86856589281439     -1.44725788459424
  H          -3.09300946246520     -1.00339542234406     -2.68540638734751
  C          -2.23880348810509      1.45737589220519     -2.99386409995805
  H           0.14033633803001     -2.51151195423754     -0.39131188111675
  H          -0.50449725825015      0.21524870914499     -3.07452347895511
  H           0.56413329959849     -1.62883664794220     -1.86599702978080
  H          -1.62883030400211      1.17874393031110     -0.42775760899386
  H          -0.63027885750743     -0.51496155495823      0.68860711822843
  H          -0.08481702105283      1.59948014942948     -1.17449817678612
  C           1.34131243248795     -0.02859007695509      0.05107929679096
  F          -1.51267624673188      2.59653628567844     -3.23865324462236
  H          -3.04475731579475      1.73968260892475     -2.30734086390072
  H          -2.66021591358260      1.14401938287578     -3.95549671572206
  O           1.92604075920358      0.90208932249087     -0.43912312426581
  C           2.01734443271410     -0.98730395192122      1.00091809954697
  H           1.32734990457987     -1.37085560287645      1.74647041204392
  H           2.85486831192898     -0.49143259263212      1.48499182884586
  H           2.41166971564670     -1.82470544761580      0.42695930400561
