16
Coordinates from ORCA-job R E -25.638106279110
  C          -1.30792714829082     -0.07759157825707     -2.76785924693944
  C          -0.02061845565524     -2.60703697175809     -1.77465750236387
  C          -1.32218142528086     -2.40127223839592     -1.94901630741854
  C          -1.94732720036323     -1.13164354245855     -2.27113765115930
  C          -0.72678811911659      1.98224814090518      0.11423605401325
  C          -0.20354699847010      0.78176289079600      0.21927657164900
  H          -2.01128697354582     -3.22690209970906     -1.82656081388199
  H          -3.01343937926004     -1.06889431168370     -2.09613877930543
  Br         -2.18884917283380      1.54801991274220     -3.14540971059475
  H           0.36308473460105     -3.58226270212545     -1.53065060119865
  H          -0.25705260271403     -0.05264837706896     -3.00242855794175
  H           0.70596101737331     -1.81669217228843     -1.84613404309392
  H          -1.60720213375656      2.24601997401019      0.66787785262561
  H          -0.56564374842220     -0.03210664020090      0.83032781321020
  H          -0.29775682804076      2.73119811610749     -0.52783822806682
  F           0.89551443377568      0.42408159938508     -0.47021684953362
