16
Coordinates from ORCA-job TS E -25.622946923100
  C          -0.56839148510541      0.70435343672702     -1.29384061506376
  C           0.79590894852579     -1.43506761116395     -0.00341370019931
  C          -0.52740067098495     -1.49745823484076     -0.30494379933990
  C          -1.20468482163782     -0.45046514091930     -0.96193376173211
  C           0.07219068065621      1.34976258593765      0.80538613381794
  C           0.85625999237523      0.38627763129794      1.34191573803391
  H          -1.13610599719416     -2.28063947935830      0.12477224567625
  H          -2.28367512605398     -0.49039273166915     -1.00792548791771
  Br         -1.54770613026726      2.17017366905660     -1.99223578695291
  H           1.24932204724007     -2.20469617496533      0.60003925579502
  H           0.47784711251142      0.76541657127562     -1.53648735696996
  H           1.48454229618854     -0.85861381857493     -0.59522658072070
  H          -0.95451567786441      1.42461806386725      1.10836397620096
  H           0.56484643673306     -0.28985402738437      2.12955519658243
  H           0.52147921150152      2.20946617483239      0.34101790145354
  F           2.20008318337615      0.49711908588161      1.24495664133631
