14
Coordinates from ORCA-job NEB E -25.637173596680
  C           0.27312451659810      0.00658062701279     -1.46820535681941
  C          -1.03404242559587     -0.06375461970033     -1.01860793480726
  Br          1.17711659009393     -1.64924475497384     -1.82297907313783
  H           0.54941323391942      0.75146902314906     -2.20312461239940
  I          -2.15570930873899      1.78731837728384     -1.26217503185063
  C           1.10854539714744      0.59841982195170      0.25821453359710
  C           0.63493260730804     -0.35979854519175      1.13300767633185
  C          -0.77190279880569     -0.43130166242306      1.36416140654013
  O          -1.40178266245044     -0.83379928484238     -0.07937752233473
  H           2.15829657843325      0.59516727698555      0.00164673239642
  H           0.65630714606322      1.58186821290562      0.25677171302220
  H           1.21574450378631     -1.25776221072401      1.28961521799190
  H          -1.28232674622526      0.51113734690852      1.55586882931273
  H          -1.12771663153346     -1.23629960834170      1.99518342215693
