14
Coordinates from ORCA-job NEB_reactant E -25.657607432150
  C           2.01773540800997      0.35589651780718      0.08389233303299
  C           1.43487749879937      1.31888490347628      0.78588619163141
  Br          2.90803280013742     -1.18884518805122      0.75713881648273
  H           2.00645258742419      0.37419698920323     -0.99098344648226
  I           0.48385080331282      2.85842941251065     -0.33908461085321
  C           4.04952249603277      2.13791856286589      4.03540528382386
  C           3.47097809155925      1.45679798119422      3.06552065789778
  C           2.04247819137080      1.00621595805839      3.11021533975574
  O           1.25578199938851      1.59600040484821      2.06996707495539
  H           5.08024660411879      2.44110893345485      3.97621095897180
  H           3.51956993072031      2.40956597792424      4.93334098000058
  H           4.01956870640610      1.19657668126748      2.17081102749131
  H           1.55892970156796      1.35607954748861      4.02508278524772
  H           1.97507518115173     -0.08582668204803      3.06749660804417
