18
Coordinates from ORCA-job NEB_reactant E -40.947157578630
  C           1.93559502525544     -0.28552747191139      0.20587456578457
  C           1.28259959864643     -1.40718373537925      0.49425175725263
  O           2.70779409885333     -0.09819203365706     -0.91831920263713
  H           1.83967546604202      0.53700983516727      0.89749903407474
  F           0.53850645838963     -1.41461921995001      1.61712894775540
  C           4.50988639112098     -2.43133504978412     -1.29526191712613
  C           3.48979954263214     -2.95964395710274     -0.63979463250135
  C           2.08159811481505     -2.90916043604484     -1.14701410858806
  O           1.16689188897868     -2.60839858739026     -0.11294968332660
  C           5.90761053252372     -2.36145818212252     -0.82543610366717
  H           4.35417134799380     -1.94136552953883     -2.24869663046845
  H           3.61015414194839     -3.43655663607785      0.32411250843545
  H           1.77622338605974     -3.90135351383103     -1.49584128360435
  H           1.99178612531372     -2.19035437165144     -1.96787368300056
  H           3.20922320807203      0.71776501947437     -0.82075467438216
  Br          7.13436029815962     -2.99998067045560     -2.22550397938516
  Br          6.33520536782718     -0.46111458361923     -0.47934943786019
  Br          6.28011900736811     -3.35083087612548      0.80032852324452
