18
Coordinates from ORCA-job NEB_product E -40.958244043270
  C           2.88506679359591     -0.66115995461294      0.02621699290755
  C           2.44409880917197     -1.23094619390623      1.36823627827750
  O           1.69143289653330     -0.36171654662151     -0.64551126850016
  H           3.46927434724054      0.25414308553542      0.21788192238633
  F           3.03842241947436     -0.55550119374446      2.38459879478147
  C           3.73806897363365     -1.65642802397183     -0.80916921588665
  C           2.96442187226182     -2.91544205412203     -1.09404930654072
  C           2.78259606122208     -3.38375018436081     -2.31450582590522
  O           1.67649305630475     -2.09047354091238      1.59519400316855
  C           5.08852084140188     -1.98899021319846     -0.18696939358271
  H           3.95626380026455     -1.15062679426398     -1.76259117133271
  H           2.55157763091385     -3.42228189534982     -0.23451958710759
  H           2.22809476161117     -4.28855193965498     -2.48707397953752
  H           3.18160609520161     -2.89251864984525     -3.18779035190411
  H           1.88259943101956      0.01108696973085     -1.51445477039082
  Br          6.12911207924654     -3.05162146602539     -1.45942328992630
  Br          6.12955340220886     -0.36733622329080      0.17947917474076
  Br          4.95019672869359     -3.01368518138540      1.46485099435234
