18
Coordinates from ORCA-job NEB E -36.867602203020
  C          -0.02613938679345      0.35239228865775      1.24089956408589
  C          -1.13915825964939     -0.41133346574390      0.82266831239881
  F          -0.18106762453708      1.69228502875974      1.27754060374117
  H           0.59040559299873      0.01581793491069      2.07029171913282
  N          -1.14737186961037     -1.76340436081971      1.10613528499856
  C           1.02494952080915      0.17455473742635     -0.38966368180668
  C           0.17889333741898      0.70065714145421     -1.37069400686342
  C          -1.04339330182250      0.01306260210033     -1.59273741477678
  O          -1.85925352114951      0.01000628493092     -0.16289748773902
  N           2.23674122415909      0.90534321091559     -0.05596956319999
  H           1.19121480071485     -0.89690517486245     -0.31765010025831
  H           0.24541650019216      1.75925465738186     -1.57046551885295
  H          -0.96875800930310     -1.05986216035621     -1.75259072225453
  H          -1.75722769579461      0.49037762778080     -2.25111046433638
  H          -1.96166229650366     -2.26070463741296      0.78059390539198
  H          -0.79036090958700     -2.06182154683782      1.99805282580725
  O           2.35533862400054      2.04049768556729     -0.43985334308935
  O           3.05143327445720      0.29978214614752      0.60745008762092
