25
Coordinates from ORCA-job P E -38.140998763660
  C          -1.20610344132644      0.58707806437053     -2.24359270587261
  C          -0.90680222790601     -1.73614797089967     -0.39200532182032
  C          -1.43684075194910     -1.84869341293052     -1.78337006376700
  C          -1.56697968934225     -0.82559073975975     -2.61121698476816
  C          -0.98566657451618      0.72432237439837     -0.73474505390780
  C          -0.14039840706882     -0.42805346386139     -0.18567514781397
  H          -1.72673246950214     -2.83748851900097     -2.10902976739868
  H          -1.93763156992940     -0.97838125697567     -3.61551549997132
  C          -2.29866634995595      1.52795373282090     -2.72856979925755
  H          -1.74927066048442     -1.78702701773404      0.30561561460426
  H          -0.28618399593745      0.87604728325572     -2.77362335387297
  H          -0.26611755275656     -2.59307106145682     -0.17804087242784
  H          -1.95285084663806      0.71548055467750     -0.22472476078206
  H          -0.00929270248867     -0.25780408841255      0.88842252162082
  H          -0.49505427156933      1.67491466523564     -0.51406692372774
  C           1.24989281924328     -0.47227854343532     -0.83204745751684
  Br         -4.04618430021150      1.00624735027290     -2.02882175154797
  Br         -1.96041438686878      3.38012604004875     -2.19633000814664
  Br         -2.41969373516394      1.52597785597591     -4.68612463401191
  C           2.25592546506106     -1.26263306809632     -0.00310768241065
  H           1.62132078085371      0.54945380657210     -0.94330773493525
  H           1.17706187887169     -0.91460751817848     -1.82750438037973
  H           2.36011721353705     -0.82638020655981      0.98800953119867
  H           3.23025515228645     -1.25184887881422     -0.48552391099406
  H           1.94737062376174     -2.29888598151278      0.10994614790730
