25
Coordinates from ORCA-job TS E -38.025003249170
  C          -1.11087079007173      0.55626703828417     -1.41005831637675
  C          -0.00807134105767     -1.73792501099462     -0.11346948883411
  C          -1.33459125000557     -1.62314758635225     -0.37836669816608
  C          -1.88002534348338     -0.51209728464486     -1.04746749462861
  C          -0.40086619471439      1.11008687805613      0.72337317885936
  C           0.38914193165311      0.11885024256622      1.20751934014494
  H          -2.03220146686855     -2.30609675695037      0.08479562832549
  H          -2.95796467621869     -0.42645657402540     -1.08812505069402
  C          -1.71148754461676      1.75370324077690     -2.02988117503351
  H           0.33896590305124     -2.55453507798447      0.49696206044199
  H          -0.05939135075085      0.43306331588883     -1.61920604059716
  H           0.73482799668858     -1.27197828387039     -0.73309832009783
  H          -1.42591614452799      1.20048808915459      1.03830077457369
  H           0.00298900501358     -0.54991110955127      1.96146293490440
  H           0.04775279199288      1.98062463333751      0.27545216608305
  C           1.88907632757221      0.22119158073474      1.10560812485519
  Br         -3.26071040834512      2.42779376275520     -1.05179234993930
  Br         -0.42962462524697      3.21250871185721     -2.20158549260758
  Br         -2.33866661667428      1.33194772961138     -3.89216758558954
  C           2.64542941930895     -0.99665248643173      1.62208168804726
  H           2.18989293927656      1.08699285750921      1.70595443744118
  H           2.18795478583275      0.43999148945209      0.07707532808991
  H           2.31004162283821     -1.25469146408643      2.62412820902176
  H           3.71055631284727     -0.78088749715369      1.66534010724538
  H           2.50375871650660     -1.85913043793869      0.97716403453089
