18
Coordinates from ORCA-job NEB_product E -34.303562923380
  C           1.67127393830068     -0.91554522133679      1.57864478907802
  C           1.00778273517877      0.37171613792836      1.21290881713654
  C           1.33374888502242     -1.96067340221971      0.51112805925786
  H           2.75445017305027     -0.77256334207365      1.64183248436996
  Cl          1.64039968663798      1.73748170732598      2.13054260131249
  C           1.21495109552428     -1.36465869348912      3.01985497479403
  C          -0.19891751866917     -1.87921822028169      2.98314048882023
  C          -1.26231465518290     -1.11506323934870      3.14203241797921
  O           0.13527094027721      0.53756084807965      0.42585426248285
  O           2.11747971742413     -2.28170282475768      3.55597544295040
  H           1.27948050263499     -0.48671219334989      3.67185388578345
  H          -0.29590609596850     -2.94468365096302      2.81954327401899
  H          -1.17999921902363     -0.05481590545697      3.31518184153527
  H          -2.25990217992370     -1.51640651690986      3.10377718453430
  F           1.82716056858408     -3.19111032508651      0.86829564266286
  H           1.78840086770787     -1.70118220252245     -0.44914566189433
  H           0.25160179636772     -2.06653576807269      0.39479707013071
  H           2.08863876205751     -3.09998718746525      3.04238242504716
