18
Coordinates from ORCA-job NEB_reactant E -34.291633249760
  C           1.75172419749450     -0.04148124981556      0.01151384385521
  C           0.92798082036310      0.06707055015736      1.05115874551736
  C           2.30430342068217     -1.35246132720069     -0.44533016741385
  H           2.06531775873017      0.83460498986153     -0.52932420950868
  Cl          0.35026025649716      1.63793679032829      1.52379807752589
  C           0.21968877160388     -2.62802782626578      4.65614250209890
  C          -0.39912534094171     -2.16479106046118      3.57792200748658
  C          -0.14307218696267     -0.81077981415985      3.00542845221407
  O           0.46548182554680     -0.99228883525039      1.72229286754867
  O           0.03319549108335     -3.83712519763360      5.21764887262456
  H           0.93757777435572     -2.04270809743699      5.21302154268731
  H          -1.10448951005298     -2.77963827892223      3.03640356303248
  H           0.52314319267114     -0.23516029749406      3.65681410436130
  H          -1.08408905516301     -0.25974846430050      2.87825524512651
  F           3.66975445496904     -1.26444093579927     -0.60724097181621
  H           1.90311853743776     -1.63883265940520     -1.42538774170757
  H           2.11350199417198     -2.13996845852783      0.28821474059911
  H          -0.60127240248640     -4.35125982767405      4.70106852576835
