22
Coordinates from ORCA-job NEB E -51.351692127230
  C           0.88241627739568      0.16700344047908     -0.39873999217261
  C           0.21966727733499      1.26924992924563      0.15829294413692
  C           0.88396017135961     -0.00413572471554     -1.87941070402814
  H           1.85271524277322     -0.09104398494494      0.01677944401028
  C           0.85631674497734      1.94833444590919      1.36822126667004
  C          -0.36390447858276     -1.38092100151315      0.49018082371397
  C          -1.58906060245294     -0.90070957976049     -0.00941439852865
  C          -2.16220538376179      0.24868582777900      0.47718281384183
  O          -0.94112706511563      1.62150785296027     -0.13861761531064
  N           0.12261851555481     -2.58264338461273      0.12038689767345
  H          -0.06391838252975     -1.08052751051366      1.48667802333438
  H          -1.95202078499694     -1.32792060652645     -0.93220453033017
  H          -2.00196187803075      0.54799905377027      1.50141480358701
  H          -3.05698100967562      0.63684853451190      0.02106166021392
  Cl          1.50539890635339     -1.60255221562272     -2.36382171581556
  Cl         -0.65278408585582      0.27713524429265     -2.69107593944027
  Cl          2.07089808031771      1.20500045027743     -2.55839721244642
  Br          2.31658648308058      3.08859672651065      0.71946641472578
  Br         -0.45757300410155      3.04359340601632      2.26404787652065
  Br          1.62018253318426      0.71191698650833      2.67638738545087
  H          -0.11172247478404     -2.92790551374132     -0.79770694138792
  H           1.02249891755599     -2.86751237630973      0.46928869558125
