22
Coordinates from ORCA-job NEB_reactant E -51.378242981230
  C           2.17798213048268     -0.55178404335910     -0.07599768929381
  C           1.62689643869322     -0.84436753511349      1.10929819027450
  C           1.50244226417440     -0.52675763625978     -1.39381280170519
  H           3.22906327480747     -0.30109507457584     -0.11580550948182
  C           2.50121443025676     -0.76820666782362      2.34407357241123
  C           0.71356807965698     -4.20334683725058      2.42486503914229
  C           0.74421820049426     -3.59152609350341      1.23474962188915
  C          -0.15858850873408     -2.45997250233774      0.89881808590012
  O           0.37356864622255     -1.19389152841200      1.40186368839269
  N           1.50575516349886     -5.25128528107870      2.78859482280249
  H          -0.02723764095139     -3.91772591510751      3.16074503975996
  H           1.48938169606585     -3.86114698974950      0.50001596377341
  H          -1.11448428977550     -2.52551553778765      1.41971114255360
  H          -0.32367045767270     -2.37920899517526     -0.17608903830253
  Cl          1.51419014390209     -2.16645071060061     -2.14010287348882
  Cl         -0.17697192974773      0.04932154488938     -1.29974506326835
  Cl          2.39171742487902      0.55975255254567     -2.49214678295511
  Br          3.75619628889756     -2.27775394367941      2.32730158208745
  Br          3.54025017263089      0.86967507582574      2.44260637699097
  Br          1.43214930517309     -0.91744161983107      3.93385456841962
  H           2.32093934865002     -5.42462891460630      2.22224754638385
  H           1.61391981839569     -5.43994334700921      3.76985451771429
