21
Coordinates from ORCA-job P E -31.626461991540
  C          -1.32860999906727      0.24056117802608     -2.55051238771422
  C          -0.09334452963019     -1.72367790774075     -1.08652925642512
  C          -1.41310793562562     -2.03046859781169     -1.71123665009731
  C          -2.01706494783348     -1.08654918349980     -2.41585927253365
  C          -0.84656951357354      0.72354606069249     -1.16454643389290
  C          -0.12327101357409     -0.37008344344060     -0.35160472432995
  H          -1.83965208364456     -3.01218901500716     -1.57737069518875
  H          -2.96250342693924     -1.24589876788598     -2.91387256385086
  C          -2.21838787113784      1.31508469403091     -3.15267869512243
  H           0.20906701663306     -2.50975514153247     -0.39415473931749
  H          -0.44958607869784      0.13374522764255     -3.19557372581331
  H           0.66981452002785     -1.64561515626443     -1.86643005148826
  H          -1.70443816206519      1.08976921325942     -0.59498108421586
  H          -0.67636498254046     -0.51822606853535      0.59545644574273
  H          -0.16050064799820      1.55827765245837     -1.31104080668634
  N           1.25229905551595      0.04703257238920     -0.12522669399041
  O          -1.87197183977435      2.07007059122879     -4.01320982749480
  O          -3.45201102395864      1.38778074990767     -2.62003307694388
  H          -3.59299002771091      0.69891425537758     -1.95489829614346
  H           1.28495019792260      0.88934248508732      0.43829323736688
  H           1.76855329367195     -0.67564139838215      0.36430929813939
