21
Coordinates from ORCA-job TS E -31.533852920320
  C          -0.41493971152063      0.35852537347345     -1.10218546404054
  C           0.84185924001560     -1.87684198578627      0.15005057578524
  C          -0.44574524471785     -1.91757074212356     -0.26956290368367
  C          -1.07012424767884     -0.84668787672338     -0.93470132322110
  C          -0.11887645815101      1.02259894133959      0.88236159531352
  C           0.77567000845604      0.20122152684499      1.52249523867892
  H          -1.07673985949836     -2.73744412261541      0.04797466345325
  H          -2.13719383258708     -0.92283058629061     -1.10433014014110
  C          -1.06783986116457      1.54369963792955     -1.70741712055480
  H           1.23889226527599     -2.66434095976352      0.76956066034130
  H           0.64984567281874      0.35249862348906     -1.28303679781858
  H           1.56746651999364     -1.23661243491335     -0.31499527427982
  H          -1.15331666021122      0.97306129698990      1.17366593298934
  H           0.44633163636892     -0.56414498910601      2.20553376794921
  H           0.22562642021820      1.98237544037807      0.53285328065090
  N           2.11920783999458      0.48443550020940      1.56137889795603
  O          -0.46478051805163      2.36876003479529     -2.34171386949427
  O          -2.38938056439330      1.68158401222171     -1.48477273375775
  H          -2.73261662399800      0.95464875128509     -0.94791973907840
  H           2.45874036557684      1.10740775479058      0.84442965290730
  H           2.74791361325396     -0.26434319642458      1.80033110004503
