22
Coordinates from ORCA-job NEB E -40.651301364720
  C           0.09743670574186      0.60055720204368      0.94813521407915
  C          -1.23025542810206      0.82747915132708      0.54724832000467
  C           1.14933604956400      1.59045562797410      0.52595296297786
  H           0.22261620125427      0.22821139963149      1.95913913211776
  N          -2.26581240477276      0.21031944495397      1.22811700914442
  C           0.35445221412691     -0.98062915970139     -0.22155079167310
  C           0.08735179622307     -0.49377524351675     -1.50523313072409
  C          -1.22558796671899      0.02011670499656     -1.73033054917721
  O          -1.47966683195298      1.21154035392557     -0.67125823198749
  C           1.68452406669680     -1.62187753608577      0.04700337918764
  H          -0.43324218644451     -1.56320262187418      0.25216236953085
  H           0.90044656149478     -0.11034732711323     -2.10006124438041
  H          -2.04188404623090     -0.65049921054987     -1.46817419682919
  H          -1.38716597740947      0.51477158232810     -2.68039335477317
  H           1.02312219187613      1.85886823323167     -0.51916874090119
  H           2.14695484672391      1.19375704161472      0.68231493489656
  H           1.05100678927692      2.49671315092604      1.12412831669088
  H          -3.19294556233638      0.43611858336540      0.90320765692591
  H          -2.17319174569261      0.10799917979215      2.22457481182424
  Cl          1.61792256200780     -3.30741202333366     -0.58309393166836
  Cl          3.05060741822766     -0.82823068661893     -0.74628943650760
  Cl          2.04397474644656     -1.74093384731675      1.78356950124187
