22
Coordinates from ORCA-job NEB_product E -40.712733442340
  C           2.11403620712848     -2.15918483132333     -0.37262559010114
  C           0.65943803709856     -2.42500932735545      0.02482439161758
  C           2.17938319891158     -0.69251947140836     -0.80827329856193
  H           2.78221455491777     -2.31686044389231      0.47744010394251
  N           0.42423322644077     -2.38956580576733      1.35430336181610
  C           2.50406234091153     -3.10272735627132     -1.52819455781386
  C           3.66670585778720     -2.58704865738685     -2.32884927605650
  C           3.59239249267027     -2.29178287126375     -3.61197768480588
  O          -0.21992827278781     -2.57333274471124     -0.79191307123840
  C           2.84261589685240     -4.49945939736618     -1.00834451229180
  H           1.62575892659898     -3.19883713615142     -2.17847645939378
  H           4.59370122559634     -2.47522175705142     -1.78412437777081
  H           2.67645682913363     -2.40320300844686     -4.16809706296782
  H           4.44344544827423     -1.92438232511345     -4.15872718556061
  H           1.52738498483151     -0.53328881988244     -1.66320658009817
  H           3.19290627520857     -0.41390764457733     -1.08261881215023
  H           1.84730521886053     -0.05034046224443      0.00446560145745
  H          -0.51278114615770     -2.56318220758468      1.67958445626801
  H           1.16587422794973     -2.35880176637362      2.03027285334635
  Cl          3.21946467376155     -5.57855064613798     -2.37290609086243
  Cl          4.26034397072427     -4.47168950393026      0.06841248708110
  Cl          1.49378582528759     -5.21560381575999     -0.09836869585575
