22
Coordinates from ORCA-job NEB_reactant E -40.672069228100
  C           1.74432889760142     -0.21165582977822      0.07364690583865
  C           1.35875567892334     -1.46922543240248     -0.13974218461476
  C           1.93862254964679      0.80811148946589     -1.00145065801398
  H           1.93166185176981      0.10683241262081      1.08798533942120
  N           1.24725474656065     -2.43871756650750      0.86145295762057
  C           2.89765032968225     -4.83263924118827     -2.24270163243465
  C           2.71625678297811     -3.72165789059584     -1.54618837948991
  C           2.17167289019117     -2.45363268258763     -2.13065045643223
  O           1.06423361989089     -1.95513331518783     -1.40071953747091
  C           3.43485849782274     -6.10967505316827     -1.70818964947788
  H           2.66837353083558     -4.87750339107115     -3.29876817578064
  H           2.93323373677874     -3.67887155729088     -0.48788992519791
  H           1.80093715840650     -2.61458863566620     -3.14565586841479
  H           2.97570540085147     -1.70304716285423     -2.15388744497665
  H           1.55316810006544      0.44249891005763     -1.94970568122634
  H           2.99600014765490      1.05273258347812     -1.11829581203440
  H           1.41456237472345      1.72771000773079     -0.74421912682846
  H           0.57143334292763     -3.15603654134437      0.63692753157113
  H           1.12018242138008     -2.06310122707339      1.78937745261810
  Cl          2.25839875553940     -7.42289420349408     -2.01740667214638
  Cl          4.95242323632810     -6.52134412391922     -2.56764778989705
  Cl          3.77708594944155     -6.07536154922365      0.02452880736727
