22
Coordinates from ORCA-job TS E -31.270585136510
  C          -1.39195631720676      0.49452270816901     -1.60024730145621
  C          -0.00595745965878     -1.79475090053644     -0.48743182468711
  C          -1.28296713917648     -1.84145677699428     -0.90930866344688
  C          -1.95631794868690     -0.73470094726563     -1.49608311898669
  C          -1.25033001083990      1.01276644354395      0.53523189869568
  C          -0.52800789626153      0.07056657792993      1.19502025262410
  H          -1.88547250560621     -2.70869469358542     -0.67336327348722
  H          -3.01760235716317     -0.84624751605606     -1.67453827602829
  H          -1.96887054943233      1.32249943901454     -1.97993785015217
  H           0.42921300446874     -2.60722217702979      0.06879831283825
  H          -0.32433781617753      0.61649701124529     -1.64309524442515
  H           0.67759314620691     -1.03685797544945     -0.82203301964035
  H          -2.32094968449603      1.03878959343298      0.64666004633142
  H          -1.00764959229019     -0.72183757684714      1.74716467608216
  H          -0.77409647830465      1.92526078425350      0.22126286323323
  C           0.92193386653875      0.14153902800154      1.37201998319576
  O           1.55067386206492     -0.53040157151566      2.15562364767792
  O           1.49461853523095      1.06675417113125      0.56520125065472
  C           2.89704785335603      1.24643035210209      0.67696600829784
  H           3.09215057306286      2.31344554001812      0.78208377042094
  H           3.37944449659570      0.86947082024169     -0.22711397842731
  H           3.27184041777561      0.70362766619599      1.54711984068537
