17
Coordinates from ORCA-job NEB E -35.934554373440
  C           1.09774860477096     -0.18343202649011      0.65879034049775
  C          -0.31160666068850     -0.10323797763111      1.04672742741738
  H           1.67792899256155      0.62588892130881      1.09882246119009
  H           1.55942787928382     -1.14164439940262      0.88942414586243
  C          -1.08219966519259     -1.28230041220459      1.34571714574659
  C           1.13961955442649      0.05478838068660     -0.94082212790263
  C           0.43585597204691      1.28037965859857     -1.23431430614304
  C          -0.91880446562534      1.34780912082790     -0.81224961252216
  O          -0.96859664257008      0.97367016830937      0.74218208080437
  I           3.19635026741734      0.04032041445068     -1.59572189303779
  H           0.66958046645401     -0.83299698593122     -1.36743925225294
  H           0.98927979093252      2.19152980279418     -1.39834283185459
  H          -1.57251433897217      0.56153632166631     -1.19371624766164
  H          -1.38676007619375      2.32484134172548     -0.86160190687152
  Br         -0.22968800164532     -2.63982991270570      2.36701123189725
  Br         -2.84067971229089     -0.91322500726327      1.97103945472988
  Br         -1.45494196471495     -2.30409740873928     -0.71550610989945
