17
Coordinates from ORCA-job NEB_product E -35.969296584180
  C           2.17832991675901     -0.94455502499631     -1.93816098736510
  C           0.98733930505294     -1.85884184092346     -2.00552955596200
  H           1.98562916548213     -0.23352725516806     -1.12407688070420
  H           3.09037156343435     -1.49209893277944     -1.68961766460822
  C           1.05760968353383     -3.09284906519574     -1.10704245671326
  C           2.34149961536544     -0.15548654458283     -3.23104373197329
  C           3.40040184233233      0.88027963803964     -3.12950041143090
  C           3.22840356840631      2.13609154602839     -3.50140173185242
  O           0.02704806866127     -1.68476037269193     -2.69525753930430
  I           2.86070470005158     -1.54685234265712     -4.84957452690678
  H           1.38686801242420      0.27435920253001     -3.53487389153191
  H           4.35011532090699      0.53982557584629     -2.73841235528267
  H           2.29238504702677      2.48618433981233     -3.90505007981648
  H           4.01658410766913      2.86312599223635     -3.41676475813056
  Br          1.58891937133073     -2.61161056546093      0.70454210816412
  Br         -0.65845860236101     -3.98318094881449     -1.06682656972397
  Br          2.40034931392401     -4.28840340122270     -1.87550896685806
