23
Coordinates from ORCA-job NEB E -42.994906080600
  C           0.41105441386956      0.68443858108309     -1.13503900959320
  C           1.25191991253338      1.64735118340219     -0.55739767112380
  C           0.91319138498348     -0.35999533003016     -2.06286507776404
  H          -0.48965361664138      1.14815339416496     -1.52946786846066
  Cl          2.92744733090267      1.20305999406673     -0.21807441898427
  C          -0.65249867479375      0.03982434452129      0.60204179308148
  C          -0.44194490659914      1.10982824018548      1.47894349700726
  C          -0.66226935786905      2.42064155859501      1.11031626728140
  O           0.81346944749122      2.68075873497664     -0.03485933240419
  C          -0.24574927183716     -1.31900889566223      1.10854683068729
  H          -1.54646139157953      0.04898336478708     -0.00855377759656
  H           0.23109784295407      0.93450600041313      2.30948278259951
  H          -0.44193303635241      3.22022877628435      1.79826768936252
  H          -1.40016141619135      2.65354247454098      0.35665651395897
  Br         -0.59050449004425     -1.24154179201166     -2.94562012083207
  Br          1.95727435049557      0.51417313669805     -3.54323230609891
  Br          2.06950240784422     -1.73842488171843     -1.35068977409674
  C          -0.98012755782847     -2.48927035777242      0.46848750717043
  H          -0.46064796987101     -1.32795712034312      2.18149460919894
  H           0.83343838670700     -1.45434956864392      1.02273605190795
  H          -2.05612827855214     -2.34443955503702      0.52954674066245
  H          -0.72784466186534     -3.40713516167453      0.99281798916198
  H          -0.71247084775617     -2.62336712082549     -0.57353891512572
