23
Coordinates from ORCA-job NEB_reactant E -43.037365693700
  C           1.43585063327847     -0.46891122540215      0.01054514179087
  C           2.20992342438532     -1.02317008212704      0.95629433579316
  C           1.92841924222878     -0.00884402398841     -1.29756966463693
  H           0.38068796313418     -0.33939746463413      0.19351681025646
  Cl          3.89906803027629     -1.25883557167145      0.73144570027993
  C          -0.46719530029592     -2.89628320829799      4.27140826873628
  C           0.35495876157657     -1.91794323277209      3.93146245399226
  C           0.47019444685808     -1.36297406330429      2.54671879952597
  O           1.84176206330008     -1.46027585561656      2.15446765900862
  C          -0.59513919621979     -3.45874083194396      5.64822054586374
  H          -1.10762608274078     -3.34904006168244      3.52460250768957
  H           1.01040749643002     -1.46110673996810      4.65853637518819
  H           0.16926567196706     -0.30581762467640      2.53155807745115
  H          -0.15652126230989     -1.92718381928232      1.84599657898108
  Br          0.46236989317233      0.72375169938476     -2.34470645545849
  Br          3.29252795208234      1.41582403123288     -1.14553588520045
  Br          2.72957697362252     -1.46326603723406     -2.37111572112909
  C          -0.29522693282104     -4.95770179907622      5.65477887767733
  H          -1.61766073646164     -3.29979483269244      6.00202299367475
  H           0.08438934682714     -2.94124896069367      6.32664337448045
  H          -0.97999643456610     -5.48800033875716      4.99701066920599
  H          -0.40097717102774     -5.35955584275816      6.65914846009364
  H           0.72094121730373     -5.14018411403861      5.31375009673553
