20
Coordinates from ORCA-job NEB E -41.805888365790
  C           0.81012392730011     -0.80144935463198      0.48828790360927
  C          -0.22518410092325     -0.51563305850657      1.39845408427232
  Cl          2.39812376060540     -0.19431468606859      0.88361003144620
  H           0.88056483901078     -1.81787214791191      0.11239205674883
  C          -1.43609435601264     -1.43457925928892      1.37025324704533
  C           0.29246061148169      0.24378799851294     -1.00846242981950
  C           0.16480491004256      1.50534744605527     -0.41441681047122
  C          -0.82740265725455      1.69791240057898      0.59433055619342
  O          -0.41435308037168      0.71207091941518      1.79131223108302
  C           1.34791387199916      0.02488543036904     -2.05911221033002
  H          -0.63352938684965     -0.28099621250522     -1.22776059916876
  H           1.02776805465044      2.15621777010829     -0.40885059276670
  H          -1.83051526298276      1.35392475476259      0.35206233372638
  H          -0.83014111635153      2.66310006291248      1.08689377424200
  F          -2.25499849182016     -1.20635757384154      0.30882487850986
  F          -1.08399453141037     -2.72613283874535      1.27716013749632
  F          -2.19709790551151     -1.30302166518107      2.45518790835878
  H           1.52009029861927     -1.03493873196055     -2.22652810154645
  H           2.28558981969737      0.49562756929241     -1.77796593073796
  H           1.00587079608133      0.46242117663453     -2.99567246789112
