18
Coordinates from ORCA-job NEB E -33.608226706850
  C          -0.29007166194301     -1.60714634705968     -0.27865755593711
  C          -0.68524874272934     -0.32107367386122     -0.66160810667446
  Cl         -1.34244037533216     -2.50059503794624      0.77242219097871
  H           0.20119280849490     -2.23153197165087     -1.01430567680958
  O          -0.12815958088060      0.12683141660341     -1.81914097100979
  C           1.16509977584895     -0.99558737506408      0.99841729835479
  C           0.44339520339018     -0.21601117638489      1.88685486831773
  C          -0.15322186053537      0.96498624624041      1.37705483872158
  O          -1.22352831483161      0.49035524676836      0.17167773627483
  Br          1.94817941477298     -2.61283462832996      1.61737305014600
  H           1.78732238073069     -0.53738070935357      0.23922374522111
  H           0.00097071730714     -0.69068001706217      2.74961805109758
  H           0.48432736280240      1.62039147009561      0.79244515083280
  H          -0.81719868310957      1.50165959693829      2.04129362818739
  C          -0.31574112328446      1.49489851411655     -2.14553491573073
  H          -0.30303306690350      1.55481553748717     -3.23195452184653
  H           0.49734699338170      2.10128558015692     -1.73792621313864
  H          -1.26919124717932      1.85761732830595     -1.75725259698567
