18
Coordinates from ORCA-job NEB_product E -33.666440527570
  C           2.83935628091557      0.51454262735310      0.89516377418892
  C           2.30356297344026      1.81795949446862      0.31144847761921
  Cl          1.40300615867606     -0.55022322858441      1.02576982078124
  H           3.51386227575349      0.03556145180062      0.18089136393060
  O           2.24962485064816      1.72444218108092     -1.01145233493770
  C           3.50468934287119      0.73199442935985      2.24282862059454
  C           2.59549603551672      1.22084862932529      3.31279223530381
  C           2.89642475630704      2.22742355314222      4.11219458259651
  O           1.96925529040713      2.77089191265620      0.95919078006906
  Br          4.30681506274358     -0.98847139430430      2.81410213223870
  H           4.35651285682007      1.40505596410780      2.11366677783882
  H           1.67060979864697      0.67324669613461      3.42194194619221
  H           3.82013587619212      2.77466236940623      4.01914680156813
  H           2.22142270123675      2.55164306601202      4.88386426162396
  C           1.70016759449828      2.82103741814919     -1.73840898963359
  H           0.79526639342541      2.47906265744028     -2.24035509313525
  H           2.43782386981652      3.13590341279240     -2.47541829365244
  H           1.46746788208468      3.64061875965936     -1.05706686318672
