19
Coordinates from ORCA-job NEB_reactant E -28.962710051100
  C           2.41101358354659     -0.64005751118651      0.09473563890138
  C           1.55989132791038     -1.66734145669164     -0.02672121665588
  Br          3.39362898669324      0.26183200997528     -1.25195783770879
  H           2.61952438179720     -0.24542567578773      1.07335263566079
  N           0.98752025904955     -2.21023532451178      1.12033769241830
  C           3.75710681502208     -3.49129500364238     -1.28779859849409
  C           3.22833880935679     -2.79668816625847     -2.28077451924163
  C           1.80449963140190     -2.32625858928118     -2.34246618860351
  O           1.11572317308818     -2.35647550076641     -1.10376881589694
  C           5.17851923748694     -3.93674835780750     -1.23772531154357
  H           3.15338451205884     -3.76551653675963     -0.43183064107743
  H           3.82213337756850     -2.51539599942677     -3.13919905813996
  H           1.21749056396300     -3.00087128315165     -2.97781973229025
  H           1.75492312374201     -1.32584108572266     -2.78764230176207
  H           0.17547464928328     -2.77379092033889      0.91575031016952
  H           0.85800140351351     -1.57642415930925      1.89234645054348
  H           5.67447287917754     -3.50599051442353     -0.36827333629173
  H           5.71448358640163     -3.63325906270859     -2.13330628789013
  H           5.22906969893883     -5.02101686220071     -1.14263888209751
