19
Coordinates from ORCA-job NEB_product E -28.998385373920
  C           3.15222402291668     -2.62906626501168      0.42029757954537
  C           1.63695357123068     -2.62629756399327      0.60514568298286
  Br          3.96733480590899     -0.93290194553481      0.95163062481877
  H           3.57392156912784     -3.37907312372817      1.09351465242623
  N           1.00806537887183     -1.45538517321019      0.41297787694819
  C           3.49108310262210     -2.99448790445134     -1.03426060698333
  C           2.99002631143589     -1.94582444167624     -1.98409712986289
  C           1.96837743073317     -2.11352921508061     -2.80144385421192
  O           1.06393541982397     -3.66102023937141      0.86116273305576
  C           4.99239910122609     -3.21056499723888     -1.21673120268848
  H           2.96522987760111     -3.93730524692586     -1.22870487557534
  H           3.53311856338925     -1.00933625941541     -1.96442256640211
  H           1.41766361538996     -3.03945981950064     -2.83845591455990
  H           1.64056508941582     -1.33583723578944     -3.46988787532354
  H           0.00535433898342     -1.43044170929712      0.49163068904238
  H           1.50023429458902     -0.60619417681047      0.19314019743976
  H           5.54187008926465     -2.29428138715735     -1.00858506375239
  H           5.19897174524347     -3.50747286471154     -2.24221103544454
  H           5.35257167222606     -3.99232043109556     -0.55099991145486
