15
Coordinates from ORCA-job NEB E -26.409145525480
  C           0.13316968015751     -1.45671464448577     -0.20639200024321
  C          -1.19630089539639     -1.09228839591620     -0.13814900699037
  H           0.62176977615108     -1.68752118348125      0.73008535245468
  H           0.47604626613649     -2.03632619987242     -1.04997023549817
  Br         -2.17936234923247     -1.13602659299776     -1.85033710109181
  C           0.96204864299814      0.36146062634656     -0.47636884038872
  C           0.37557065494617      1.05635715124737      0.58276777672040
  C          -1.01972845188826      1.23878601695226      0.60924556393431
  O          -1.67455704879339     -0.33615632126937      0.74664841683728
  O           2.29117724209644      0.11344582891433     -0.51926518080888
  H           0.57774725959757      0.49493212952896     -1.48220254844002
  H           0.91220534319416      1.07955169308186      1.52361715208399
  H          -1.50602084598527      1.52011787520729     -0.31868749604288
  H          -1.44898153057303      1.70715053591498      1.48307897927971
  H           2.67521625659125      0.17323148082916      0.36592916819369
