15
Coordinates from ORCA-job NEB_product E -26.447729005680
  C           3.17091046458507      0.82850543743811     -1.29292625671539
  C           1.69691025416406      0.71810425007486     -1.18558192357947
  H           3.61784973988935      0.30112071157191     -0.44505561964923
  H           3.52102827913697      0.38599133024820     -2.22719964466808
  Br          0.78857519155588      1.40545479378465     -2.79350904316146
  C           3.62399056546146      2.32187167980721     -1.26958795624726
  C           3.05376336830033      2.99475575027106     -0.05164799878458
  C           2.11064381473168      3.91591923926360     -0.09046203544730
  O           1.03453483509944      0.31259052127320     -0.29705588896518
  O           5.02143927888134      2.40039330228903     -1.32719314092855
  H           3.26856886772961      2.81579950029347     -2.17949166681320
  H           3.46997039460165      2.66288766442894      0.89217312899145
  H           1.68810670794481      4.25603675491385     -1.02144019569586
  H           1.71936806748322      4.36459903698597      0.80612314750548
  H           5.39314017043513      2.14687002735593     -0.47334490584139
