18
Coordinates from ORCA-job P E -31.963744478220
  C          -1.28764351108466      0.62832459026752     -2.09743596160208
  C          -0.52927189966400     -1.74927319803270     -0.47937234106849
  C          -1.15921795659029     -1.82872276020821     -1.83591825522658
  C          -1.49040977992696     -0.77317575693501     -2.56204692119246
  C          -1.02990631115955      0.71839166120547     -0.59837985933392
  C          -0.01828060007445     -0.34857902481313     -0.17600148534892
  H          -1.32695068121195     -2.82345583333365     -2.21909388624482
  H          -1.92031844335157     -0.88964495232571     -3.54551631067854
  Br         -2.89946972504660      1.70671958593037     -2.52081140217189
  H          -1.26310868045353     -2.03650280505906      0.27921271936515
  H          -0.49280735928926      1.11422275460136     -2.67243546738799
  H           0.29316698743479     -2.46644536093600     -0.42527964078846
  H          -1.96010205125444      0.54020222665561     -0.05513125337968
  H           0.20961229057814     -0.23020839609210      0.88926619641593
  H          -0.66189255189890      1.71251776857015     -0.33658913745717
  N           1.26669289448640     -0.08047833552479     -0.88863877942644
  O           1.76585280260150     -0.96824964627603     -1.53062573964289
  O           1.71991457590533      1.03110748230591     -0.76082247483076
