18
Coordinates from ORCA-job TS E -31.859337862420
  C          -0.76730107240087      0.72895746742147     -1.36805463011986
  C           0.52537570875463     -1.59525747242465     -0.25808510204421
  C          -0.79680083584761     -1.55126498480545     -0.52929154379387
  C          -1.42976915895897     -0.43829234625780     -1.13263697860187
  C          -0.32745205462272      1.29472172388235      0.70519125873065
  C           0.43220370668085      0.33142666323943      1.29153006481504
  H          -1.44364223882380     -2.33237106972524     -0.15490079060698
  H          -2.50666394069160     -0.45864797099883     -1.22469878607611
  Br         -1.70137117608727      2.21789311626876     -2.07920212695781
  H           0.94684704167244     -2.40586203621715      0.31238912696115
  H           0.29339776078562      0.78761289653053     -1.55416542328438
  H           1.23261725935526     -0.96826955601567     -0.77146415633350
  H          -1.36143250924398      1.40497108942737      0.98092144759655
  H           0.06794920354741     -0.39080239586119      2.00232642233224
  H           0.17038428351965      2.16229485120721      0.30068033058452
  N           1.84719070519943      0.39039261581274      1.18800697572829
  O           2.49270480994096     -0.27680471046798      1.97069973953037
  O           2.32576250722055      1.09930211898410      0.32075417153977
