17
Coordinates from ORCA-job NEB E -26.154208209640
  C           1.05996509937064      0.50378143414637      0.34266975608144
  C           0.19995935331344      0.26445511270320      1.39531477675728
  C           0.80729781247325      1.66901908112561     -0.57166686533298
  H           2.10610613996632      0.28091891402650      0.52109604999933
  F           0.68755732031791     -0.56965349119133      2.38519827207952
  C           0.40089286737801     -1.08448924587154     -0.75875627850920
  C          -0.95746357034612     -0.86652471215067     -0.80337953355585
  C          -1.67955442364216     -0.91424706357438      0.42974037843395
  O          -1.07206069624045      0.30975085900489      1.31084662319260
  H           0.98630125630885     -0.96307877039370     -1.65732418884877
  H           0.78758429445883     -1.82736168136531     -0.07531718462501
  H          -1.37395796108002     -0.28248547544571     -1.61113573808509
  H          -1.47203968755683     -1.76393962965802      1.07553900352102
  H          -2.73296791609051     -0.66516797113211      0.39472526701669
  H          -0.25910979432359      1.84413403291336     -0.68270009682193
  H           1.25028825226866      1.50141211713519     -1.54972826005899
  H           1.26120165342377      2.56347648972764     -0.14512198124400
