17
Coordinates from ORCA-job NEB_product E -26.205973844360
  C           1.63797621381994     -1.30567972775874     -0.91810327301249
  C           0.87896963789683     -1.07180883280565      0.35002353950265
  C           1.44962445204125     -0.13129144512031     -1.87250903955601
  H           2.69675107502863     -1.40939901860177     -0.65297850296886
  F           1.22275460180374     -2.00356957927421      1.29470860538480
  C           1.17141533320972     -2.65506009127608     -1.51652067138923
  C          -0.30233318507041     -2.67380550669501     -1.78724269152994
  C          -1.16715761101088     -3.38058999245714     -1.08518158670716
  O           0.07498674726527     -0.25528127391962      0.62443678950997
  H           1.72110816816454     -2.81825720034446     -2.44635353461408
  H           1.42491629365576     -3.45593844673459     -0.81926734311080
  H          -0.63997137852004     -2.05646550557642     -2.60815711640536
  H          -0.85558705264702     -4.00369219590669     -0.26245781647133
  H          -2.22170910304174     -3.36792234070542     -1.29970998573590
  H           0.39295615015294      0.05884747651739     -2.03761662271454
  H           1.92695364511877     -0.34170496038666     -2.82609072519181
  H           1.89114601213271      0.76941864104539     -1.45298002498992
