16
Coordinates from ORCA-job NEB_product E -32.829073780470
  C           1.78909028216375     -1.51240934612699      0.92699172195114
  C           0.84634710478211     -0.34028215438244      1.00924230828964
  N           1.82068450327760     -1.98425880829588     -0.50290168442841
  H           2.80454991755804     -1.17295943118348      1.16261592308578
  Br          1.07728195465796      0.61286424407111      2.69906462430432
  C           1.33335861683271     -2.61446875857028      1.89681194300817
  C          -0.15481465534813     -2.82108293991793      1.84765613237547
  C          -0.95949177441370     -2.55585089122103      2.85837342718794
  O           0.03163917386457      0.01639976851702      0.23944649190620
  H           1.84032617532632     -3.54155520865534      1.61778665637915
  H           1.63833285958176     -2.33804236124711      2.90742600672341
  H          -0.53888638791428     -3.20602902030146      0.91361021664645
  H          -0.59062528247759     -2.17394542317928      3.79695527923004
  H          -2.02144291134767     -2.71389617602743      2.79183456372526
  O           2.31052644964174     -1.21238052812097     -1.28394984986287
  O           1.37482397381481     -3.06960296535852     -0.75016376052168
