16
Coordinates from ORCA-job NEB_reactant E -32.813116005670
  C           1.94843742804797     -0.05877117493150      0.03937863195706
  C           1.24853104476624     -0.49662732013071      1.10648049865964
  N           2.27306992168879     -0.87852304726606     -1.06841872913800
  H           2.30396490256587      0.95526754812798     -0.03106194917014
  Br          0.89936119083307      0.78458104352382      2.48723092611007
  C          -0.24285296720095     -4.46096247149448      3.19260933901113
  C          -0.24537282389428     -3.59258420251510      2.20073517279959
  C           0.04465689362789     -2.13273401364608      2.37195638059889
  O           0.81136956321622     -1.71030291187728      1.25022422872462
  H          -0.47550448137378     -5.49825116685124      3.03135985477975
  H          -0.02102754176589     -4.17005950889956      4.20641329333549
  H          -0.45865356587720     -3.88556400479036      1.18363999622592
  H           0.59656028564460     -1.94638506278719      3.30131898879155
  H          -0.89545574492418     -1.56161062652419      2.40095407832724
  O           2.92287259013367     -0.34982109415070     -1.94919826885218
  O           1.89324330451197     -2.03135198578735     -1.08312244216062
