16
Coordinates from ORCA-job NEB E -25.760225652570
  C           0.63862833675647     -1.03882821150764      0.10047099242311
  C          -0.78369712065112     -0.81499101664116      0.28324959699697
  H           1.16656103920920     -1.11767306772249      1.05179467051160
  H           0.84880342880721     -1.91783323654521     -0.50506078213075
  N          -1.71492586526108     -1.49079287730931     -0.46354643539039
  C           1.22071249786161      0.26117446345288     -0.59313278722418
  C           0.70515652570072      1.46276263605009     -0.03907073437768
  C          -0.61673922575723      1.53313479218777      0.58414049283704
  O          -1.21213970793915      0.22989119500097      0.95835548708970
  Br          3.35271152745960      0.16838617330668     -0.30493330176988
  H           1.22793326759624      0.10588545367163     -1.66708248498678
  H           1.37819758048499      2.26862884137093      0.19624061395769
  H          -1.38344941779148      1.90800145591084     -0.10837624286338
  H          -0.62966599295162      2.16691871466688      1.47615302142036
  H          -2.67951537110886     -1.27722103646786     -0.26118101155899
  H          -1.51857150241548     -2.44744427942503     -0.70802109493443
