16
Coordinates from ORCA-job NEB_product E -25.830615177220
  C           3.04371291297734      0.24676582551938     -1.68484644425299
  C           1.54443490251865      0.12650271925671     -1.42730463961444
  H           3.56889905200500      0.10351892035346     -0.73898667469948
  H           3.37457767825563     -0.51202182454711     -2.39608172618755
  N           0.83004767987877     -0.24787499472063     -2.51332612129631
  C           3.32553593929686      1.64371500671138     -2.22191426569487
  C           3.01339193870975      2.71129139663559     -1.23690650258959
  C           2.26570820256633      3.76324073252152     -1.51559014645219
  O           1.03157262829001      0.38039436725412     -0.36466516205883
  Br          5.26630771226717      1.76010349737901     -2.68980879593937
  H           2.81357984932226      1.81743842077749     -3.17113905592543
  H           3.44611964009463      2.57848863794970     -0.25535072336439
  H           1.82955992056797      3.91223455282514     -2.49042440651344
  H           2.05278661117977      4.51484234066529     -0.77645477177335
  H          -0.16738856686661     -0.35007777636250     -2.42287295903123
  H           1.26025389893649     -0.50586182221855     -3.38312760460656
