20
Coordinates from ORCA-job NEB_product E -46.530794118820
  C           2.24537464567090     -1.37897572296746      1.06382916863514
  C           1.04207816228174     -0.84566258127114      1.81084494610356
  C           2.05225101978262     -1.04449605091763     -0.41193715674822
  H           3.15427407762456     -0.85668391392996      1.38832285492826
  C           1.30628476058420      0.00805120916266      3.04832387323033
  C           2.46487839459043     -2.88656721855440      1.33522411053728
  C           1.29022890492847     -3.78078076831168      1.08363815871966
  C           1.37082690104079     -4.89364161774634      0.37778776751991
  O          -0.09009931725515     -1.09617195753933      1.51716936369196
  H           2.76164664263692     -2.98680312439402      2.38404950895915
  H           3.31213112582523     -3.21656990077522      0.72765122657724
  H           0.35713869297495     -3.49518254707848      1.54922472927401
  H           0.51983213416862     -5.53644420251239      0.24198999047976
  H           2.28900426775432     -5.20467605160286     -0.09345476965568
  Br          1.82296171026329      0.90677764120959     -0.58074904405969
  Br          3.64477501108682     -1.53645908066647     -1.42411928597701
  Br          0.52055042636525     -1.87520359624767     -1.25203866106243
  Br         -0.33005532766721      0.89988106946835      3.56876411309597
  Br          1.80259450311390     -1.28978981278960      4.43884714467364
  Br          2.73152326422936      1.30949822746405      2.87213196107716
