20
Coordinates from ORCA-job NEB_reactant E -46.517576422940
  C           2.25665841578668     -0.47270393620833      0.36746417384134
  C           1.35210534071565     -0.91852338700228      1.24773915882694
  C           2.34362632397867     -0.78796913547979     -1.06946586144196
  H           3.02039667094005      0.20974230214671      0.71982424622451
  C           1.39262217879431     -0.36381249183161      2.65724732161705
  C           2.42772010218291     -4.20074079169389      2.14798090871484
  C           1.17392872912242     -3.80067810246658      2.04208046953272
  C           0.62267968946463     -3.15941716928413      0.80564262486497
  O           0.33351816157424     -1.76304411749530      1.02807205942146
  H           2.80578610310651     -4.64299509545815      3.05293996822045
  H           3.12600582683455     -4.11538404312388      1.33037020765446
  H           0.48361038928634     -3.88415299734362      2.86983139715678
  H          -0.35036462228400     -3.57506576590877      0.53796815424378
  H           1.31726867886726     -3.28707794770805     -0.02848369552206
  Br          3.11445230211340      0.74443548883730     -2.02699825419693
  Br          3.57976118993972     -2.33130759415491     -1.36744211065599
  Br          0.63300567981462     -1.19293949426606     -1.90696357372904
  Br         -0.14922454880129     -0.93614902671325      3.65811559369330
  Br          3.01259120504461     -1.01618124203140      3.56968579612650
  Br          1.43935218351873      1.59006454718601      2.66789141540687
