20
Coordinates from ORCA-job NEB_reactant E -46.237777144930
  C           1.88840100794099      0.25127243694541     -0.07027934798070
  C           1.44048654258491      1.33099596976053     -0.71845261710495
  C           1.54841805478941     -0.22118493433041      1.30105834727653
  H           2.56394445230564     -0.37855458695956     -0.62407694622765
  F           1.86480883890275      1.47315626836408     -1.98673669709692
  C           1.32696569395959      4.67526618699489      2.08039604926516
  C           1.45077436186399      3.50002834304879      1.48845056511130
  C           0.30889312707267      2.76019896830201      0.86313541855844
  O           0.62445633578077      2.33739333043899     -0.45984262446086
  C           2.46780671608834      5.40848801563959      2.71865181445759
  H           0.37828625714972      5.18347451137495      2.17154760858132
  H           2.41682369652519      3.01744956007788      1.43007097278960
  H          -0.55576281882945      3.41530873429478      0.73579621300022
  H           0.01262140909589      1.91730992173197      1.49283670293577
  F           1.97572416804729      0.62646810929344      2.27981443113435
  F           0.20173567922371     -0.33104892428486      1.49424617905934
  H           1.98790748212846     -1.20621789738291      1.50987843216335
  F           2.20040070022913      5.66209844106849      4.02696717526769
  F           3.61787282369343      4.69895824589052      2.69419399804310
  H           2.66563547144756      6.38203929973141      2.23554432522732
