20
Coordinates from ORCA-job NEB_product E -46.256334592410
  C           2.16937677835449      1.81066145829220      0.69047271773416
  C           1.27594781003924      1.41679830538050     -0.45618551495282
  C           2.36887116393619      0.59497134173551      1.61228276009803
  H           3.16017129954193      2.04305860325298      0.27344835037906
  F           1.11759919708765      2.45290086121362     -1.31995970235845
  C           1.62286606139304      3.11819699873800      1.33319884025309
  C           0.23517710819463      2.95932107312061      1.89950859656653
  C          -0.84897965795089      3.34038702855427      1.25171768976643
  O           0.75676013928059      0.38551882952068     -0.68276461667982
  C           2.57478008349151      3.67783021524539      2.39623760504248
  H           1.59967541125878      3.86567306105845      0.53108255264270
  H           0.17207648900520      2.50061080672586      2.87459839700592
  H          -0.80580560298393      3.79634031424080      0.27555948696999
  H          -1.82910832891686      3.20606329986482      1.67341472379712
  F           3.55070327698912      0.67623191195191      2.25617671880084
  F           1.41391888281101      0.48150318822093      2.55454654816763
  H           2.36966900505213     -0.34042719639848      1.02798972072212
  F           2.66921758596962      2.88980364608548      3.48208457142312
  F           3.82679457904436      3.80196206427784      1.88948162474454
  H           2.24878871840221      4.67439418891861      2.73520892987735
