20
Coordinates from ORCA-job NEB E -34.102026969960
  C          -0.42973674104488      1.27503220535979      2.12678134320126
  C          -0.57011608129841      0.19020184452611      1.34390121354349
  N           0.49844304550757      2.26067417392760      1.96064390376393
  H          -1.07040281985884      1.38549147394084      2.98668820483913
  C          -1.12134688530511     -1.03594294567698      2.02358312321709
  C           1.50782235449426     -0.27190168648780     -2.42502702153516
  C           0.25871399898539     -0.66410160184427     -2.15280549539393
  C          -0.56330842678970     -0.48687713329860     -0.92988417090587
  O           0.16668462644529      0.06756140268403      0.16497283939975
  C           2.03651362488272     -0.66038304383995     -3.67700126162929
  H           2.07846653771563      0.45037107984027     -1.86326346684073
  H          -0.22275000608389     -1.35314014551777     -2.84040562961664
  H          -0.91649970339804     -1.49311397484718     -0.65878993413778
  H          -1.46116575972588      0.10835737666959     -1.16632474975821
  H           1.06065955624473      2.18357747513841      1.12931772584506
  H           0.29144780436122      3.18970759104929      2.28202103958210
  F          -1.96265746364338     -1.81595920666421      1.23140089359325
  H          -1.73006757609669     -0.75997523113562      2.88088162960716
  H          -0.32634167170371     -1.72860936327709      2.30392128384787
  N           2.47564158631173     -0.84097029054646     -4.72061147062244
