20
Coordinates from ORCA-job NEB_reactant E -34.119297737850
  C           2.56383717030035     -0.30660838659714     -0.34232944437365
  C           1.69273829356051     -1.31321801280828     -0.50779782329027
  N           3.86139146963940     -0.32802601047129     -0.78113981231430
  H           2.23991414016182      0.60973275316917      0.12737739777713
  C           0.24651264750754     -1.20075139547234     -0.13488002534937
  C           1.70600736843249     -0.69736850021320     -3.74523916316741
  C           2.27942639766970     -1.83496154451263     -3.35301012640390
  C           1.63176300356945     -2.77009548924134     -2.38000542284601
  O           2.11582630673123     -2.51968643270419     -1.05773775176727
  C           2.35949183016482      0.22416774533064     -4.58495374716099
  H           0.70457421136672     -0.42483633128028     -3.43727730890134
  H           3.29032565166076     -2.07182068400020     -3.65614816320914
  H           1.90478095975738     -3.80762242669920     -2.58619866884062
  H           0.54090821964149     -2.66499985709895     -2.41212831398102
  H           4.19744729737824     -1.24059408488810     -1.04958284380811
  H           4.52585614548898      0.24215285503053     -0.28614484336409
  F          -0.50582503086205     -0.64526001572037     -1.16676709638485
  H           0.10289493820202     -0.54201492409110      0.72480917878398
  H          -0.18620701311101     -2.18651150723436      0.05981649916460
  N           2.89053599274016      0.97952224950261     -5.26536252056335
