20
Coordinates from ORCA-job NEB_product E -34.117404047420
  C           2.58237763855557     -1.59461784011232     -1.36551239573702
  C           1.24224198522649     -2.07237693332428     -0.81619834949546
  N           3.00012125805394     -0.34468504245703     -0.75526425792489
  H           3.28250589827801     -2.43379218610036     -1.16263358142632
  C           1.05208830078603     -1.94479196508838      0.68762419928399
  C           2.47024618867070     -1.42351881557867     -2.89934217632029
  C           1.55729864445518     -0.27930472633800     -3.25986683230877
  C           0.59258996894813     -0.37531526265492     -4.15258452406437
  O           0.37613391860311     -2.54104991087625     -1.50462254402185
  C           3.78578682375861     -1.16473743036868     -3.43664097350847
  H           2.09049676569220     -2.35446381203910     -3.33454340802678
  H           1.75370134027407      0.63982034520176     -2.72725356852611
  H           0.39055518800300     -1.29233320187668     -4.68121754003570
  H          -0.04237793572062      0.46130304460262     -4.38736718800228
  H           3.84714146130034     -0.01166719433660     -1.20546229029734
  H           3.20731219227313     -0.46650241185748      0.22883026008243
  F           2.22637371369788     -2.08743512664286      1.37948493184821
  H           0.35668352999869     -2.70815281299183      1.04819210542847
  H           0.66057681164409     -0.94392391559057      0.90677912032500
  N           4.83354630750144     -0.94165480157037     -3.83620098727244
