26
Coordinates from ORCA-job P E -32.806195085810
  C          -1.23490678093254      0.34909395313970     -2.34516307424305
  C           0.02144362051147     -1.66994200835363     -0.97636635582926
  C          -1.30337591277743     -1.96101476967172     -1.60506407985671
  C          -1.91355535601768     -0.98673463935834     -2.26058992866128
  C          -0.76532985574590      0.76902926001035     -0.93325012570923
  C          -0.05657540475602     -0.36333515854002     -0.17112109218734
  H          -1.72831925464535     -2.94770935128015     -1.50320124422422
  H          -2.87136289684564     -1.11180926874627     -2.74137120728109
  C          -2.11196915432991      1.41775249781796     -2.93714507618758
  H           0.34246377572469     -2.48501998084091     -0.32722276670541
  H          -0.33922752156308      0.23770903051889     -2.97089968649518
  H           0.77279324990711     -1.55415849630881     -1.76465459967890
  H          -1.64248430448687      1.09387094899557     -0.37161145232078
  H          -0.59830836709799     -0.56773808913080      0.75394700984080
  H          -0.10712280551103      1.63393682890779     -1.03229459377448
  H           0.95405524041554     -0.05799556272939      0.10454381803729
  C          -3.40039105464887      1.61732298465931     -2.45455941084766
  C          -4.20781211594270      2.60651495739462     -2.98502461297407
  C          -3.73713986070179      3.41504444734503     -4.00591469283511
  C          -2.45531657528455      3.22679242882862     -4.49191438951826
  C          -1.64996914484919      2.23480481673025     -3.96003049155388
  H          -3.77386398489693      0.98933933119078     -1.65792496430067
  H          -5.20792042346544      2.74812705393559     -2.60102714209737
  H          -4.36740262815595      4.18801211354580     -4.42071872988528
  H          -2.08112107910916      3.85350448956366     -5.28862201935181
  H          -0.65011140479480      2.09227218237611     -4.34655909135948
