26
Coordinates from ORCA-job R E -32.714312437850
  C          -1.54956452293183     -0.24445574484570     -2.72092822208930
  C          -0.06434186448640     -2.68818184337989     -1.73678932635887
  C          -1.38466830487646     -2.54839198695436     -1.82926049044308
  C          -2.09853230387638     -1.33550515249887     -2.16687249062264
  C          -0.86790624820707      2.00753674265253     -0.25864399545901
  C           0.07709122166305      1.09530574997351     -0.17320466467733
  H          -2.01285314960104     -3.40392532896552     -1.61169206321255
  H          -3.15910568859260     -1.35859144483983     -1.95626641924358
  C          -2.22147730034990      0.99558201716536     -3.05615447395178
  H           0.38147246011369     -3.63177871867835     -1.47223167428555
  H          -0.49339731960114     -0.25845841304725     -2.95556814580344
  H           0.61586605746900     -1.87197013620938     -1.90940237310558
  H          -1.88739269297916      1.80110961468973      0.02153481022298
  H          -0.12160068596676      0.09983439961119      0.18898031926756
  H          -0.67342449256909      3.00210473086018     -0.62558466599209
  H           1.09648113676519      1.30232340431514     -0.45651185250444
  C          -3.57946928141209      1.22389565870099     -2.81868530430871
  C          -4.16220396684577      2.43285768735069     -3.14303844924935
  C          -3.40740878045012      3.44499522007988     -3.71428539838293
  C          -2.06060927362346      3.23511404338953     -3.95993544465571
  C          -1.47648766814062      2.02718044837057     -3.63541871211968
  H          -4.18664716798111      0.45085640224229     -2.37314015394442
  H          -5.21353191477642      2.59027957392096     -2.94869883912345
  H          -3.86674004916953      4.38961211608337     -3.96550597307486
  H          -1.46426822440032      4.01838874571732     -4.40586393874728
  H          -0.42380997517369      1.87180221429588     -3.82535205813491
