26
Coordinates from ORCA-job TS E -32.702793884100
  C           0.22693465910222     -0.55164983725104     -0.41519621604430
  C           1.80464419856948     -2.59705226931251      0.85580769077953
  C           0.47543302127608     -2.74646953554784      0.60525224713146
  C          -0.30180887308586     -1.74094879152499     -0.00214168447726
  C           1.03184447040300      0.14281287314670      1.71657473641787
  C           1.73419022689599     -0.87130599032429      2.27084888823796
  H          -0.05621472498403     -3.56646039255894      1.07000684758089
  H          -1.37492353789477     -1.87074967763960      0.01143689900580
  C          -0.55136370485855      0.58379985772450     -0.88263238006194
  H           2.33263410020712     -3.34538039614031      1.42494101660135
  H           1.27821305750342     -0.50666221997645     -0.65580064621603
  H           2.42284592235697     -1.97659038598879      0.23260978284077
  H          -0.00124678800441      0.30614076829186      1.96655284453887
  H           1.27957367523250     -1.50479833378789      3.01326671345496
  H           1.52285040153810      0.94027993626802      1.18677437677932
  H           2.81080844881443     -0.87047890621572      2.24724911626456
  C          -1.88623919176179      0.78017090811460     -0.52185523909040
  C          -2.58850694568894      1.87826767645329     -0.97824696068265
  C          -1.97543545526183      2.80984842703120     -1.80037284320843
  C          -0.64823831677135      2.63714263083277     -2.15770751511043
  C           0.05575382953912      1.54113256109036     -1.69951007025879
  H          -2.37418769916068      0.07288565757875      0.13197414207379
  H          -3.62074606799259      2.01314176265190     -0.68812969250071
  H          -2.52685845195091      3.66811621839327     -2.15495502538646
  H          -0.16143893463629      3.36224111665132     -2.79407922163042
  H           1.09148268061359      1.41256634203982     -1.98266780703928
