25
Coordinates from ORCA-job NEB_reactant E -50.854401248490
  C           1.87102861952353      0.07225749711503     -0.33104897041832
  C           1.30637200703674     -0.06541458115251     -1.53175921373737
  C           2.01550101975564      1.25033540588420      0.56886154011902
  H           2.30135129894858     -0.84132151231357      0.06339647439384
  N           1.32470279814429     -1.40690537482750     -2.13518690903757
  C           2.92888527529993      3.58607316848766     -2.00539883951336
  C           2.40050316942711      2.46843333984934     -2.47940567267202
  C           0.93988635497971      2.14823831481052     -2.41449872122586
  O           0.67172718651955      0.76346996498101     -2.38949116821338
  C           4.36392242284339      3.96132716466451     -2.08434921242470
  H           2.31426510183186      4.34258395017247     -1.53684936262275
  H           3.01394255665226      1.71939205877135     -2.95999848846396
  H           0.45743980472933      2.48512724759294     -3.34020996797588
  H           0.45264198528235      2.65805868298038     -1.57358588985657
  C           3.47627473749313      1.42505905301240      0.98639035262054
  H           1.41685444043766      1.05475043951968      1.46403136518619
  H           1.65001077710630      2.16908963894186      0.11696933988385
  H           3.83752044664021      0.53395283197381      1.49283480347259
  H           3.57432652734845      2.27168284065101      1.66012005040449
  H           4.10123503982115      1.60433134174244      0.11540031513757
  O           0.97326088279543     -1.49446726456071     -3.28555874166250
  O           1.69193372514400     -2.33092735955793     -1.44272588677742
  Cl          5.42068928322726      2.62496115846320     -2.56395591891244
  Cl          4.55756868354675      5.28976382064592     -3.27437583023085
  Cl          4.90925585546539      4.56354817215249     -0.49400544747316
