17
Coordinates from ORCA-job NEB E -29.430238566290
  C           0.40679902747872      0.88009636479389      0.42931772491946
  C          -0.59570838767181     -0.06184338876139      0.67774458972459
  I          -0.43095690964891      2.95765301455495     -0.51293730778692
  H           0.81666472334694      1.32412882467111      1.32861571462683
  C          -1.20647399240198     -0.21270581358013      2.03584684683894
  C           1.47005126043381      0.42904851933676     -0.60339498969787
  C           0.79052427333432     -0.27144643053475     -1.70469360911378
  C          -0.35430226100844     -1.13519411733103     -1.43921406797669
  O          -1.08552859531203     -0.91315695682960     -0.23859124258534
  H           2.04132987982412      1.28077543656176     -0.97608253144185
  H           2.16862297201257     -0.21851480110177     -0.05657869951307
  H           0.95337219488411      0.04394260741408     -2.71970825626790
  H          -0.04793405889593     -2.18955978367733     -1.35503065851814
  H          -1.08331366048988     -1.08402384472673     -2.25591251991071
  F          -0.23714044553696     -0.51229757427633      2.97583677605104
  H          -1.92768958746146     -1.03363346684610      2.03927349863908
  H          -1.67831643288719      0.71673141033260      2.37550873201235
