20
Coordinates from ORCA-job NEB E -33.639687555620
  C           0.55148703977877      0.50589367378650      0.86295924347443
  C          -0.83455272506461      0.25450372089060      0.81750365091985
  N           1.10191182686662      1.70554812181668      0.36430373961773
  H           1.11953545076975      0.07328108708712      1.67818511674941
  C          -1.40365188975568     -0.90628386474638      1.61304282419998
  C           1.04558408267083     -0.70439619806491     -0.64644065872097
  C           0.28965479924298     -0.13390117859054     -1.68476702383160
  C          -1.09451204865747     -0.21387285080663     -1.67357083374501
  O          -1.52838355747916      0.71243811720569     -0.14863159434642
  O           2.39915578743341     -0.61196635989441     -0.63128103593514
  H           0.73465276831948     -1.65355423017527     -0.22325709604506
  H           0.75565255682435      0.66903782191667     -2.24145044561822
  H          -1.57019975998848     -1.12800214211451     -1.34844638901870
  H          -1.65565175538614      0.34730005327633     -2.40307444255127
  H           0.39629204414567      2.23477760715734     -0.13728230180964
  H           1.53170531534342      2.26926114720758      1.08478659803586
  F          -0.61427207888896     -1.22860662392527      2.68653962839330
  H          -1.48614036451572     -1.80946785550586      0.99241752334548
  H          -2.39402713538250     -0.64320240724752      1.99852522584626
  H           2.65575964372344      0.26121236072677     -0.96006172896026
