20
Coordinates from ORCA-job NEB_reactant E -33.671718297710
  C           1.24883239486352      0.03641340661172     -0.03768975654448
  C           1.50963817518723     -1.22866590750040     -0.39229838549353
  N           0.96133445727614      1.04898983156730     -0.92640050054834
  H           1.32573482780102      0.32741985848008      0.99924746648494
  C           1.91896341616842     -2.27177227753624      0.60812711628656
  C           3.97973271598289     -3.56234211609789     -2.49740309272117
  C           3.69678315841299     -2.35932708463268     -2.01760205348228
  C           2.56107149349210     -1.52136285809214     -2.51381838626291
  O           1.37834330564181     -1.64105287963975     -1.71337217034527
  O           4.96560996435627     -4.37556361414591     -2.05742769861565
  H           3.43912875898921     -4.00649883018266     -3.32124723844797
  H           4.25974700852213     -1.96050176641420     -1.18391229021569
  H           2.24344151205411     -1.84744280671667     -3.50680335160747
  H           2.86605262606274     -0.46658271112101     -2.55111127648422
  H           0.68318808704604      0.71675926274296     -1.83918222449114
  H           0.38806565837792      1.79785156778553     -0.57261315506489
  F           3.21087162261718     -2.05899441341082      1.07355990805737
  H           1.91318548433671     -3.26206314757087      0.14572924630841
  H           1.28223784961168     -2.26002290960300      1.49831984573054
  H           5.41023748319990     -3.96624060452335     -1.30310200254281
