20
Coordinates from ORCA-job NEB E -35.784997303080
  C          -0.19699253313031      0.78170786357584     -0.42618735523074
  C           0.38224803998607     -0.42757189354547     -0.88828325711694
  C           0.58850009187904      2.02554565475896     -0.21548263747133
  H          -1.13692055159744      0.99956545582263     -0.92814531136654
  C           1.84583885672987     -0.74105658736953     -0.81333456443475
  C          -1.03788236129840      0.28624194207776      1.23999039102359
  C          -1.09226736092467     -1.11188514707001      1.26158120369951
  C          -1.59113467693731     -1.72691368460068      0.09003977061554
  O          -0.42005085602236     -1.41992300458142     -1.06132839574641
  H          -0.45768637021787      0.76051529263873      2.02251767531449
  H          -1.96517909111843      0.80626690640220      1.03736481024457
  H          -0.31297901795990     -1.64143820748650      1.79588010940536
  H          -2.46268021869345     -1.26959174807141     -0.36890331822810
  H          -1.61007637833062     -2.80793362560362      0.04557714990623
  Br         -0.59445016080964      3.47467888863209      0.37330074762954
  Br          2.00017710322072      1.87796434090464      1.11667239244032
  Br          1.43200469264468      2.64758421699026     -1.91226116021739
  H           2.03001642912636     -1.65731114231067     -1.36925919609062
  H           2.13809403354572     -0.91051411649699      0.22545439659519
  H           2.46142032990794      0.05406859533319     -1.22519345097153
