20
Coordinates from ORCA-job NEB_reactant E -35.827804072170
  C           1.34310310424688     -0.46283512107664     -0.10552344493350
  C           1.93293541479778     -1.60587942750832      0.29640240019122
  C           1.96858152985949      0.58245831204772     -0.92091406539509
  H           0.32125195220958     -0.25821582239178      0.17422753001157
  C           3.33655138788920     -2.01251377389604     -0.01892491164374
  C          -1.03948129894087     -3.52783496462752      3.41487999994988
  C          -0.41240029117425     -3.57423532749617      2.25604519632689
  C          -0.01897198298575     -2.36354390446410      1.46641841186233
  O           1.32420750090631     -2.53884437824102      1.04153093052465
  H          -1.31993742364159     -4.42290042314520      3.94151177003230
  H          -1.30851263514418     -2.59372256328531      3.88007261457265
  H          -0.14008592495122     -4.51400665415916      1.79802268626888
  H          -0.11171467540727     -1.45628048197923      2.07657697780743
  H          -0.67326104531843     -2.26980841193185      0.58592769862249
  Br          0.71500449959975      2.04333598573795     -1.24287582831446
  Br          3.57282114224498      1.40404485086716     -0.07318431370768
  Br          2.55582844946829     -0.05055910856915     -2.71627158971309
  H           3.52627796528185     -2.97876639522609      0.44030081546565
  H           4.05032315860355     -1.28959199493951      0.37152312455265
  H           3.48827917245591     -2.09510039571573     -1.09354600248101
