16
Coordinates from ORCA-job NEB E -36.327507216480
  C           0.44281763004216     -1.31561758931521      0.52883858955409
  C          -0.90346239802851     -0.90221397850125      0.26181482530856
  Br          1.00230438488867     -1.39007685172067      2.34153575432266
  H           0.79369226390485     -2.19314845632038     -0.01199854200494
  N          -1.26676973677378     -0.84962145497310     -1.09671918948583
  C           1.24775955632986      0.05817467169024     -0.26107215833486
  C           0.58836644635543      1.23037649424294      0.11775028807818
  C          -0.83423493610275      1.37630840986024      0.47505054218472
  O          -1.36569818404937      0.12168709828101      0.98947737244097
  Br          3.19306826211031      0.20974985728584     -0.16747481900112
  H           1.08086450356285     -0.64010817484869     -1.10350137666368
  H           1.19690583017644      2.08879725462358      0.37258152977707
  H          -1.47800527025116      1.62668664845879     -0.38854652315609
  H          -0.98531836634147      2.13056391698730      1.25119420242997
  O          -2.23538756778613     -0.17930323685307     -1.41236307378636
  O          -0.47690241803740     -1.37225460889758     -1.89656742166333
