16
Coordinates from ORCA-job NEB_reactant E -36.380700197940
  C           2.24399252102021      0.19169904386761     -0.55314856009839
  C           1.59259792339154      0.97391655818861     -1.41905248056134
  Br          3.11154584562118      0.67215553586257      1.03765067447274
  H           2.28744950367174     -0.86749171895981     -0.76144800776184
  N           1.00942839805268      0.28924840601394     -2.59534399366018
  C           4.06231272531649      2.91816004019050     -1.91976846085764
  C           3.42806990830262      3.31913354558740     -0.83132462832420
  C           1.94023622529830      3.22298757768059     -0.65996702469025
  O           1.32443926013451      2.27682754395685     -1.51747015344105
  Br          5.93492071636677      3.03768099583905     -2.10726213021227
  H           3.57278715899093      2.49738357629161     -2.78476675133842
  H           3.96250248410388      3.74706656537729      0.00329950063387
  H           1.47195046265594      4.17309085581595     -0.94031446527009
  H           1.69232554578833      3.01785277370796      0.38695387354622
  O           0.57461961566442      0.99739561658349     -3.46369424959263
  O           1.02172170562044     -0.91910691600363     -2.59794314284452
