16
Coordinates from ORCA-job NEB E -25.494557670950
  C           1.14081857342098      0.58264411628105      0.09139450509153
  C           0.16257605050391      0.91312648813737      1.04003677813944
  N           1.11958758027963      1.14175627719883     -1.18469191517305
  H           2.13924288476802      0.36253147459032      0.45120900103011
  I           0.62208721732363      0.27336144009099      3.08287257830673
  C           0.38603503554208     -1.25129430459234     -0.28567776891053
  C          -0.91013315304724     -0.94727013204417     -0.65946169233550
  C          -1.79123906294936     -0.42902951042881      0.31803208188110
  O          -1.05827373301281      1.03910813938178      0.74582882422585
  H           1.08573581518275     -1.56594563799376     -1.04451299057756
  H           0.56379684173942     -1.68221272040167      0.68968767720168
  H          -1.11037333667100     -0.71862363674194     -1.69663125118058
  H          -1.78803678681878     -0.90228782916934      1.29550813913590
  H          -2.77245129103257     -0.10169666924108      0.00250583073466
  H           1.94706341175906      1.65435782291537     -1.44376491111213
  H           0.26356395301229      1.63147468201740     -1.40233488645764
