16
Coordinates from ORCA-job NEB_product E -25.537897232150
  C           1.88685823951812     -1.79473941869013     -0.41720653399426
  C           1.14513690580314     -0.97484675834003      0.61385940356149
  N           1.86203888049086     -1.17441386978128     -1.71626678519658
  H           2.93241020040067     -1.88649631823774     -0.09798617715877
  I           1.53564583289750     -1.62041557601699      2.66027657329321
  C           1.26439497280892     -3.20819357071174     -0.47718016279816
  C          -0.22569849602725     -3.15932786112686     -0.62765424514089
  C          -1.07236818252510     -3.56320666104524      0.30024320867761
  O           0.42596001084606     -0.05881503351809      0.42537851151566
  H           1.71162630448772     -3.70882315772842     -1.33795273464014
  H           1.52822630906389     -3.75833819475659      0.42651470000785
  H          -0.59258182240520     -2.75890841753286     -1.56364614233089
  H          -0.73508372523315     -3.97236122722022      1.23887451757387
  H          -2.13823832894499     -3.50794392493175      0.16135927294637
  H           2.30261165623186     -0.26184256850289     -1.70219849614313
  H           0.91126124258696     -1.05922744185919     -2.04851491017324
