16
Coordinates from ORCA-job NEB_reactant E -25.516965536530
  C           1.86897610812176     -0.15580427822400      0.16081028928886
  C           1.63194635610782     -1.40306210466178      0.56577820829741
  N           1.69602290270996      0.27239445604681     -1.14223521878182
  H           2.16241782247361      0.60077669390449      0.87058047780361
  I           1.77576943083657     -1.85425304804708      2.65681738998930
  C          -0.59364593357867     -5.29474694939152     -0.75910254824685
  C          -0.11510594006186     -4.11119561548261     -1.08977455313321
  C           0.02839169652969     -2.97175489422250     -0.13305757992556
  O           1.34430229904183     -2.43395720621919     -0.25615028450134
  H          -0.69459558536190     -6.08671882795268     -1.48063992690558
  H          -0.91417839859788     -5.51720175244326      0.24535581369094
  H           0.21426531948924     -3.89828846136720     -2.09710355325348
  H          -0.13809158396890     -3.30791797557618      0.89925070516265
  H          -0.70677996896046     -2.18510070727644     -0.36636686356471
  H           2.31200240072695      1.01311934675269     -1.43844507979497
  H           1.61980307449223     -0.47818867583955     -1.81411727612525
