15
Coordinates from ORCA-job NEB E -31.292581805090
  C           0.22058497442600      1.77427291627568     -0.36291393886737
  C           0.06137110349087      1.07429478979744      0.89997524751951
  Cl          1.66657648495937      1.48394065220805     -1.25461977634149
  H          -0.16829930154303      2.77414553407461     -0.47969855897813
  C           0.79507620075162      1.51728851514131      1.98786126911578
  C           0.72072260949079     -1.77671118409013     -0.51884002463226
  C          -0.52576523534429     -1.47475156848583     -0.83895375178144
  C          -1.38623604941245     -0.50624015726371     -0.07661456502079
  O          -0.75582619905122      0.02231661498534      1.06910207401953
  Cl          1.66522134501666     -2.87381746659468     -1.43711780883556
  H           1.23977879177717     -1.37095073601240      0.33610622088443
  H          -1.00471879999514     -1.91457217049612     -1.70049611903120
  H          -2.28334463293316     -1.01662180692183      0.28836638335578
  H          -1.68031840868762      0.31258328657898     -0.74971649458961
  N           1.43517711705442      1.97482278080327      2.83755984318283
