15
Coordinates from ORCA-job NEB_reactant E -31.383034287430
  C           1.58294636177204     -0.21272296321275      0.09716960760037
  C           1.39785305046512     -0.96737199296515      1.19314196024853
  Cl          1.07943295957376     -0.52817895206481     -1.52030484304472
  H           2.11461748685540      0.72058219743382      0.19825399346932
  C           1.93144992059401     -0.40706119779066      2.39547050032547
  C           1.65377146003956     -4.95324847928566     -0.30889502480934
  C           1.46645583108805     -3.64512388973870     -0.35076942530232
  C           0.33149010105925     -2.96754340990657      0.35881412358202
  O           0.78678940441146     -2.14645385657603      1.42552652125567
  Cl          2.94864894469998     -5.73385646368881     -1.11715817013955
  H           1.00089219510504     -5.63023757733424      0.22135087942719
  H           2.15176599852538     -3.00691549619819     -0.88859597482630
  H          -0.30649245200968     -3.70646971419901      0.84924175677077
  H          -0.26870053041206     -2.38462932558232     -0.34686098075987
  N           2.35447926823267      0.05103112110907      3.35501507620276
