15
Coordinates from ORCA-job NEB_product E -31.377001865930
  C           1.92592509003341     -1.45152046669110      0.07218198788866
  C           2.98124310559203     -1.09979884847325      1.11908108955228
  Cl          2.67143938918781     -1.36237865473753     -1.54550673543509
  H           1.12951234871232     -0.69833909702997      0.10466303378574
  C           2.45176681257172     -1.22031643774208      2.47075398536268
  C           1.32149309974155     -2.83146871905243      0.34857397807441
  C           0.37017469909768     -3.28872380907580     -0.70415180756521
  C          -0.85488896787648     -3.70243261618945     -0.43717380727030
  O           4.09928859311959     -0.74797854691550      0.88487475659624
  Cl          2.68039755586984     -4.02029895343823      0.47177723618046
  H           0.83928696501624     -2.82301421289638      1.33099663406980
  H           0.75808083720771     -3.28443699739064     -1.71167573545281
  H          -1.24533499780519     -3.72135277729797      0.56720118701386
  H          -1.51550688704274     -4.04056216438633     -1.21582643685839
  N           2.03102235657453     -1.30757769868335      3.53093063405766
