17
Coordinates from ORCA-job NEB_reactant E -37.047178886740
  C           1.84591690796923      0.02180051498147     -0.00312904233886
  C           1.22555490662944     -1.08605882273616      0.47336311894816
  N           2.14920863048332      0.23149203486282     -1.37519022811096
  H           2.14838823822149      0.82130036278839      0.65414166862451
  C           0.99112372203764     -1.12448643004955      1.88471854573627
  C           0.24631877852746     -5.51501288137980     -0.58225144692372
  C          -0.00932415315329     -4.23405416796740     -0.76388693098730
  C           0.18425965250047     -3.20527981326938      0.30692089057268
  O           0.84537647565964     -2.09708644734397     -0.29178777874394
  I          -0.06286675602286     -6.96330513048729     -2.06359837700060
  H           0.61022310968238     -5.92253044270705      0.34663577484700
  H          -0.36176453099098     -3.84411579844588     -1.70693569114091
  H           0.77308607568812     -3.60447081638411      1.14246946192968
  H          -0.79401051604070     -2.88168314519752      0.69377598413468
  O           2.72297366908462      1.26919921705929     -1.63914602925844
  O           1.82530589809755     -0.61144976372098     -2.18317111751044
  N           0.79962989162648     -1.16225847000287      3.01247119722219
