24
Coordinates from ORCA-job P E -43.141330074530
  C          -1.31577602938975      0.38773288675119     -2.38828689343973
  C          -0.08185804456784     -1.68592724719821     -1.10041720948704
  C          -1.39343256694241     -1.94614265264094     -1.76962437014792
  C          -1.99247160584388     -0.95169655416847     -2.40343705578505
  C          -0.89334071057354      0.74658047961997     -0.95232165636893
  C          -0.15966775151916     -0.40079149725960     -0.24059907982053
  H          -1.81618843088645     -2.93620460057063     -1.72128100713933
  H          -2.93914456090120     -1.05165448764391     -2.90824036761301
  C          -2.23099868296100      1.46291382531620     -2.94549473944825
  H           0.21219420260358     -2.53068564309165     -0.47938647996550
  H          -0.42702321434881      0.36667384348863     -3.03167112135591
  H           0.68561977086442     -1.54265975256833     -1.86823610899022
  H          -1.78950148848993      1.01256329647706     -0.38974217933151
  H          -0.69251629007519     -0.65236178571293      0.68029537723182
  H          -0.23648258673966      1.61934503109383     -0.98284300598459
  C           1.26578050005338     -0.00157588372413      0.13542346358716
  F          -2.59109859689038      1.21216032230007     -4.21581043216437
  F          -3.37293488326813      1.58339254158589     -2.24914899440754
  F          -1.66003060480953      2.67662658052442     -2.94860352878833
  O           1.79937444616178      0.98421647842720     -0.30181061467100
  C           1.97121203610010     -0.95629514285889      1.06365006148350
  H           1.28894358081885     -1.39148164111712      1.78757185523158
  H           2.77967037367829     -0.43907694226701      1.57382499304998
  H           2.40855113792645     -1.75924145476264      0.47194909432473
