24
Coordinates from ORCA-job R E -43.049133665100
  C          -1.51888905185241     -0.10503665323800     -2.82525258176286
  C          -0.19687272914305     -2.66954968414389     -2.03396006748665
  C          -1.45351250656264     -2.54856896000939     -2.45072819423480
  C          -2.07925431681044     -1.31230098934242     -2.88221288703543
  C          -0.49001094294917      1.99839053794268      0.55927930102337
  C           0.22650461253775      1.01408556379651      1.09029833679415
  H          -2.09354419693252     -3.42056628383889     -2.48594535005269
  H          -3.08373747372908     -1.40901429493088     -3.27596032076327
  C          -2.20224869740316      1.12385857944106     -3.31457549950101
  H           0.20400163277075     -3.62237027348603     -1.73407622979240
  H          -0.52831781225205      0.07382362784945     -2.43563240214620
  H           0.47488358586631     -1.82964400397175     -1.99266551639408
  H          -1.11156201793504      2.64653406751782      1.15261544179720
  H           0.22098937388599      0.82151496627282      2.15388132456643
  H          -0.45918221641032      2.18767974409741     -0.50101375882257
  C           1.08257056413203      0.13961255744614      0.26303942357866
  F          -1.63249673332991      1.61620282360966     -4.43319280650606
  F          -3.50123422748938      0.95063686073725     -3.60528100511862
  F          -2.14967470954897      2.12602914511858     -2.41173194458759
  O           1.08531885024520      0.18104619425874     -0.94865000760917
  C           1.93699414355797     -0.82635082245742      1.04254724419432
  H           1.28430302956902     -1.55778654865964      1.51683553251885
  H           2.48301844007986     -0.29963553547208      1.82083776844243
  H           2.62777339970327     -1.34320061853771      0.38153419889797
