24
Coordinates from ORCA-job TS E -43.038517322750
  C          -0.90030286349523      0.53142698900428     -1.44999576213687
  C           0.37380654965618     -1.80214060931481     -0.33592940209908
  C          -0.94124261177811     -1.76025253572913     -0.63173907925961
  C          -1.56651200251128     -0.63559290088844     -1.22401713183065
  C          -0.45390751919832      1.14134598291293      0.63158048263648
  C           0.27758276571437      0.16328960918252      1.23127172268052
  H          -1.59204413333454     -2.55022158943329     -0.28331549451403
  H          -2.64512212880551     -0.64396774597386     -1.30353120756952
  C          -1.65170772229861      1.70258337986306     -2.00128843312977
  H           0.78161781730519     -2.62999344093312      0.21990903004166
  H           0.16297034079183      0.57174867695960     -1.62428504901710
  H           1.08975265478163     -1.15244196833836     -0.80262798868808
  H          -1.49391809863105      1.27964386712423      0.87571241366249
  H          -0.18209522685908     -0.54391687533957      1.90331641767599
  H           0.06950240036882      1.98747796908027      0.21546703287123
  C           1.74756504876692      0.19458319742538      1.15829452115938
  F          -1.95585869283402      1.54350182680419     -3.30644811269007
  F          -2.82372841106849      1.91163926658084     -1.37512437331281
  F          -0.96536882289607      2.84937200865561     -1.91734292769615
  O           2.34214788349311      0.84208839386002      0.32283306561214
  C           2.45633759386432     -0.60881726073247      2.22133191088942
  H           2.06849312659393     -1.62339078787195      2.25825374860525
  H           2.27650412680153     -0.14316066150034      3.18907097511085
  H           3.52552792557247     -0.62480479139758      2.02860364099832
