23
Coordinates from ORCA-job NEB_reactant E -51.110244029490
  C           2.51026284283571      0.14701864093251     -0.04421272502045
  C           1.78062312346581     -0.79719429215471      0.58363360366327
  C           2.77928992004061      0.00757372406566     -1.48426010909648
  H           2.91170954614348      1.00144120770001      0.46977671723252
  C           1.50651150102111     -0.73557590095690      2.06250982395119
  C           1.38776712950867     -5.10570760323512     -0.66551073863956
  C           0.74687407314460     -3.96096520375559     -0.83299013763855
  C           0.58355109896474     -2.93350832823095      0.24557119441172
  O           1.35180527498240     -1.80210889791210     -0.17852845701689
  C           1.58572466926952     -6.12489193806937     -1.73130111385193
  H           1.80280749074562     -5.35530570350234      0.30321820918825
  H           0.33963025000427     -3.68541208864698     -1.79476848521516
  H           0.94116606944023     -3.31577953597652      1.20329131553375
  H          -0.46643337275904     -2.63146100883102      0.33295954044698
  Br          1.11927014277401     -0.06921970293011     -2.53227164319923
  Br          3.83266129678335      1.48859173845767     -2.15122297833420
  Br          3.75800158745355     -1.65698483327955     -1.87700265067322
  Cl          2.38970946232774     -2.06481708531495      2.88195021071693
  Cl          2.05101354821753      0.78490259771316      2.79470412003235
  Cl         -0.24019801959981     -0.88155868065184      2.39941011334026
  H           1.12777250357354     -5.80994935222598     -2.66453922280071
  H           1.15568815999252     -7.07784920649589     -1.42560954342127
  H           2.65099170166983     -6.28173854669910     -1.89570704360957
