23
Coordinates from ORCA-job NEB_reactant E -32.501545422480
  C           1.33056063529058      0.01607861259868      0.23264786578946
  C           1.27838247655181      1.33064891642654      0.39180323217152
  H           1.99759019003600     -0.62117389338509      0.78140379307935
  H           0.68038134220073     -0.45868493657426     -0.47709992094686
  C           0.33987958204007      2.22614837738289     -0.38027086049885
  C           3.47324295784273      3.74112894663723      2.91301063099744
  C           3.69072697978466      2.43770651801472      2.91674274330382
  C           2.96640060801314      1.44849042463009      2.05390254563976
  O           2.01806994949898      2.10108441017970      1.23598922460307
  C           4.16879752895183      4.76595968777856      3.75359616197957
  H           2.72173198474166      4.14006586882294      2.24527975866978
  H           4.42756867844323      1.98159499220598      3.56121849787441
  H           2.46190960005331      0.70630376535349      2.69273642130166
  H           3.69332400161779      0.90891167305116      1.42636359621640
  F          -0.44112620626099      1.52187901692693     -1.25300785236554
  H           0.90904020002838      2.95678259210942     -0.96633138324015
  H          -0.33097174049939      2.75423904955276      0.30701806365181
  C           5.22862690187287      4.21769519104373      4.69971092733228
  H           3.40878801977786      5.30163757583890      4.33147172672415
  H           4.62640727506651      5.49984485129267      3.08239366413016
  H           4.78944460353293      3.51347658400637      5.40203618554742
  H           5.67692353279674      5.03080591736286      5.26615256526373
  H           6.01570089861856      3.71357585874373      4.14433241277560
