17
Coordinates from ORCA-job NEB E -34.412678558760
  C          -0.07477145257003     -1.45422259695696      0.17555342281469
  C          -1.45409173222202     -1.22870653829068      0.18567072045910
  F           0.54985691499035     -1.50992781686230      1.36539321313666
  H           0.34464555752559     -2.18703379012647     -0.50877291640971
  Cl         -2.23896560295267     -1.59426013943910     -1.36181671741711
  C           0.52241916128359      0.30476825309097     -0.47163603266346
  C          -0.09810848998597      1.14244704121675      0.45097130912360
  C          -1.52082508710666      1.17912320816766      0.48827537292318
  O          -1.98256339884648     -0.32732421656541      0.91019191270645
  C           2.03022754825676      0.23941686144488     -0.52860113355336
  H           0.07618081711604      0.20377485751719     -1.45744474438332
  H           0.45170720346957      1.41739707971918      1.33905423112214
  H          -2.02820246762470      1.27491884170796     -0.46915248903443
  H          -1.97234657809054      1.77695014766609      1.26965701609560
  F           2.60306033459484      0.51404846409057      0.68092283004048
  H           2.40189673759209      0.99659447053271     -1.23137858554684
  H           2.38988053457024     -0.74796412691304     -0.83688740941365
