17
Coordinates from ORCA-job NEB_product E -34.454756257110
  C           3.26420837769535      0.63377763064975     -1.39853230700384
  C           1.76715908414495      0.44070017129083     -1.31325219916147
  F           3.80035556606405      0.33736109091357     -0.17756573192514
  H           3.69191157222778     -0.07739266939760     -2.11871501489953
  Cl          1.04126645051745      0.48777713296117     -2.92641738675282
  C           3.58737513573336      2.08956818140473     -1.80936927413050
  C           3.12179047534425      3.03672985108901     -0.73700094550139
  C           2.17465750908986      3.93543917551712     -0.91858179461350
  O           1.09964176383028      0.28611333480844     -0.35484483480184
  C           5.08503019984470      2.26936081577311     -2.08871034487178
  H           3.06008423217757      2.28836557602000     -2.74722648210397
  H           3.62340704886517      2.92570751490243      0.21340340465018
  H           1.66742432958247      4.04876625209824     -1.86346991679996
  H           1.86571304517913      4.59621412077500     -0.12812190363396
  F           5.83958966346277      2.08147905930043     -0.96656984496821
  H           5.27641040002807      3.29207069745412     -2.43097447684842
  H           5.43847514621278      1.54926206443965     -2.83545094663386
