20
Coordinates from ORCA-job NEB E -28.397051034070
  C          -0.03466513851435     -1.09564073130942     -1.15348456496565
  C          -1.34614218558847     -0.95627588344772     -1.55124772892367
  H           0.14564517769326     -1.75138746667020     -0.31365322132128
  H           0.74226698214968     -1.10206321526549     -1.90308648728442
  I          -1.67475737289230     -0.06070578811614     -3.51115503580312
  C           0.18860392432150      0.61993022673331     -0.16268215233545
  C          -0.89328947690656      0.55034404843484      0.70228108176551
  C          -2.20782629790001      0.53070899946119      0.14545120510838
  O          -2.30480740317115     -0.83521901127777     -0.71912250203578
  C           1.61828254238879      0.61195110983574      0.32291830259486
  H           0.06415929680565      1.24618516542374     -1.04280357631578
  H          -0.76328276194461      0.09904424028389      1.67412579437043
  H          -2.41655561148651      1.27555274516792     -0.62083582277407
  H          -3.02951727826846      0.41545658535656      0.84189653398557
  C           1.88126524645342     -0.21172046721870      1.57779546754225
  H           1.89513651343347      1.65290891603029      0.51794741186078
  H           2.26495798347574      0.26059690027411     -0.48394132218520
  H           1.37460174268396      0.21587860281476      2.43883830104796
  H           2.94791972964730     -0.22639705147787      1.78857224069020
  H           1.54800438761964     -1.23914792503305      1.45218607497847
