20
Coordinates from ORCA-job NEB_product E -28.444743614430
  C           3.25516045133833      1.55536110584246      0.33421405832855
  C           2.06514900529780      1.48080038535721     -0.54830850628410
  H           3.32541162643613      0.62439091020276      0.90175747771564
  H           4.14194349865046      1.60900900633485     -0.30531174644730
  I           2.10700838616967     -0.34230982739708     -1.77494787233086
  C           3.18976464876246      2.76736772395863      1.27382737974559
  C           2.10707006629011      2.57261510625874      2.29564067397822
  C           1.18019431311729      3.46983198921164      2.56951069685773
  O           1.16551202221717      2.22808007417736     -0.67852496582210
  C           4.55472981221970      3.02550839766600      1.93789654647342
  H           2.94446920351704      3.65214021650467      0.67609334675729
  H           2.12209481140539      1.62696263804183      2.82162700660780
  H           1.13626711352400      4.41467423463383      2.05347584368915
  H           0.42249817787030      3.29834154642691      3.31460968585319
  C           5.07095596132644      1.88165452766012      2.80341979489743
  H           4.45818391111937      3.92059533405166      2.55578252937948
  H           5.28691937241825      3.24160650469893      1.15571299026019
  H           4.37229790176143      1.65353765774175      3.60368332345956
  H           6.01786180025535      2.16678544921222      3.25593122806418
  H           5.23970791630330      0.98214701941551      2.21671050881694
