21
Coordinates from ORCA-job NEB_product E -45.525744826330
  C           2.58534730020562     -1.13449058749915     -1.09775912884297
  C           1.28699847132650     -1.89977048346429     -1.11831168904669
  C           2.28595916669667      0.35526414146827     -0.91121168375327
  H           3.22854982802214     -1.48616131735966     -0.28858724988203
  C           1.16108041626202     -3.00660324288511     -0.05580313330132
  C           3.34093664056199     -1.38238047552933     -2.43525392688074
  C           2.59378031997275     -0.84876397782487     -3.62519467702506
  C           2.96513287366559      0.22921897088288     -4.29047571488283
  O           0.37152187663564     -1.65833467162708     -1.84890165842701
  O           3.53052517422361     -2.78059603860399     -2.52144494876312
  H           4.31188458099689     -0.86906410320151     -2.35004753318070
  H           1.72455517291040     -1.42184720702514     -3.91439839816236
  H           2.41422903595994      0.58591362460707     -5.14340206569014
  H           3.82959629686854      0.80447413435541     -4.00022804368708
  F           3.45341905581217      1.06991901126143     -0.92852224540750
  H           1.81364332987900      0.53873359080185      0.05865663798117
  H           1.65979983317474      0.73491390961650     -1.72368747598586
  Cl          2.57400255613534     -4.05539566616607      0.03380880386366
  Cl          0.99174520720359     -2.10040473490742      1.47854792275560
  Cl         -0.28961047191808     -3.97155038899361     -0.32430697439171
  H           3.98050333540494     -2.98387448790616     -3.34857681729004
