25
Coordinates from ORCA-job NEB E -42.923872831700
  C           0.35805970312161      0.78569936258830      0.56645754250120
  C          -0.90019267779506      0.18901326978616      0.77108799507012
  C           0.42878378846351      2.24744997960713      0.17496582689060
  H           1.12714343659673      0.53886451966953      1.29406176875425
  C          -1.10041431156706     -0.90450747740922      1.79058394259069
  C           0.84687891272953     -0.12758641682224     -1.03958461464657
  C          -0.21051870988483      0.12305480767649     -1.92511359609655
  C          -1.51685962318009     -0.29522707323572     -1.53213071078904
  O          -1.83076053152185      0.39740811213136     -0.12428129730481
  N           2.14655185602928      0.42400931832579     -1.40725491514208
  H           0.97986403383072     -1.11257867336989     -0.60693174254864
  H          -0.10313340796509      0.95108702718855     -2.61038686832766
  H          -1.62442518348740     -1.34594443314985     -1.27257024345604
  H          -2.33058427816157      0.04907105386179     -2.15997967002294
  F           1.71070332569804      2.70209855590931      0.32664524645749
  H          -0.19419145975172      2.84300823782424      0.85234341223753
  H           0.13096727809752      2.44082573407089     -0.85985474715446
  C          -0.19836499137714     -2.12890636415802      1.60718032864719
  H          -2.14616752140308     -1.21260717817185      1.74178331675942
  H          -0.91775212585957     -0.48444926226353      2.78267475154354
  H          -0.38413893979545     -2.61478514765654      0.65209858990407
  H          -0.40720924005278     -2.84848612418190      2.39461513758840
  H           0.85226661139560     -1.85730971249455      1.66995670680526
  O           3.11059244763125     -0.12098152322837     -0.92160467917866
  O           2.17290160820889      1.36177940750214     -2.16476148108232
