25
Coordinates from ORCA-job NEB_product E -42.969053704530
  C           2.60171164743064     -0.84765355931592     -0.96579198249185
  C           1.27682612344651     -1.42854791042140     -0.46796079760828
  C           2.47884164737662      0.67533021790153     -1.03597141049213
  H           3.41632614071511     -1.11525507882772     -0.28574725718027
  C           1.39025943728607     -2.47395911792924      0.61270783704771
  C           2.92654348896975     -1.45795624659258     -2.35033197718000
  C           2.20756169806461     -0.80774033498654     -3.48927654643661
  C           1.12371046228730     -1.31719274832698     -4.04254553460562
  O           0.22471147128204     -1.05268312589799     -0.91426660385683
  N           4.41340662475539     -1.40142271834111     -2.56146640779705
  H           2.69159879698286     -2.52874232326299     -2.31777439259930
  H           2.63403489821225      0.12175547074628     -3.83774711876721
  H           0.68995220889760     -2.24491151987301     -3.70716036099348
  H           0.61470162716840     -0.81611740587472     -4.84629146117695
  F           3.61601028732971      1.21885900542953     -1.57381677313851
  H           2.36423049494973      1.09953380226115     -0.03357157923915
  H           1.63718311947387      0.97274693620116     -1.66790951098525
  C           2.24167884525154     -3.68047003971254      0.21433476162162
  H           0.38299974534836     -2.80109909442223      0.87611049798212
  H           1.83686476405864     -1.99295460314634      1.48697482477945
  H           1.81411485349989     -4.17889584566596     -0.65277405066910
  H           2.26090141319921     -4.39311790927959      1.03477047241339
  H           3.26737569465086     -3.39676491441955     -0.00662324701723
  O           5.09753664575240     -1.75318167490554     -1.63120795116388
  O           4.81231786361062     -1.07025926133767     -3.64366343044560
