25
Coordinates from ORCA-job NEB_reactant E -42.954567348070
  C           1.95076064673482     -0.29949512173278     -0.17510765466651
  C           1.38204342352690     -1.48828992447391     -0.35482302797445
  C           2.29141922905149      0.79395369704363     -1.14331165809321
  H           2.21302618226898     -0.04034401548842      0.83936773918214
  C           1.14562946119929     -2.42351389214967      0.80367598640984
  C           3.43674375614550     -1.50346207505791     -4.14121840928338
  C           2.80607100490665     -1.81322555513804     -3.01386493285564
  C           1.34101378725306     -1.64486640530056     -2.77292195763463
  O           0.93246990811874     -2.08490994479135     -1.50570732054204
  N           4.84730298640053     -1.72058201216290     -4.28127829930117
  H           2.97513447991695     -1.08340338041373     -5.02155404268481
  H           3.38147859046441     -2.23806982710235     -2.19827886219100
  H           0.78608811779262     -2.28202890654005     -3.47260836843719
  H           1.03682699071278     -0.60727558019163     -2.96262850989014
  F           2.96731679802193      1.78748886138380     -0.47852053502061
  H           1.39792923394748      1.27406660960952     -1.56532110143318
  H           2.95647056066948      0.46749500835748     -1.95337416495402
  C           2.27210885148140     -3.45358029496503      0.89846349573506
  H           0.19920379849777     -2.93912939143303      0.63633056073626
  H           1.08060485800540     -1.85775860727788      1.73158936880859
  H           2.32924156684657     -4.03683542013039     -0.01733378316240
  H           2.09095412532103     -4.13227196428052      1.72764138361502
  H           3.22713217333092     -2.95837153324831      1.05782353620905
  O           5.45550027588059     -2.17462839970205     -3.33719977763760
  O           5.33332919350469     -1.43056192481391     -5.35263966493397
