23
Coordinates from ORCA-job NEB E -35.764030550150
  C           0.48103024922815     -1.13484286084374      0.68053844720860
  C          -0.87307679988459     -1.38837940035082      0.83441772369822
  I           1.66020633207932     -1.12499812109697      2.44669081824599
  H           1.01111547335815     -1.59452190063235     -0.13926258402938
  C          -1.65706293237200     -1.84363648430531     -0.38245840765645
  C           0.35264445533659      0.87333212823085      0.15765409665775
  C          -0.94983960753356      1.24062248877273      0.48398863009334
  C          -1.44081085198855      0.93433821521534      1.76071238577320
  O          -1.55312841194267     -0.82949938876092      1.76285641002431
  C           0.82740665090868      0.95491494554587     -1.26977321799092
  H           1.11296065155968      1.11489349637732      0.88863760645234
  H          -1.66860996421479      1.33124806946921     -0.32332700645469
  H          -2.46945262788614      1.16351868814981      1.99670412619921
  H          -0.76516584325584      1.02869805674856      2.60068063310888
  F          -0.86786937658147     -2.46594042246792     -1.31160991730008
  H          -2.11234387060810     -0.96931589414317     -0.87088044382521
  H          -2.44301928844602     -2.54425280682508     -0.08480402659305
  C           2.33931939289139      0.80999527850075     -1.39538986783457
  H           0.52626729464167      1.92566866258673     -1.67535849291855
  H           0.32895270384507      0.19121045956309     -1.87237499395109
  H           2.84440782935366      1.60261986579197     -0.84769492335710
  H           2.63931241268148      0.86984141574160     -2.43863283212456
  H           2.67675612882988     -0.14551449126756     -1.00131416342617
