23
Coordinates from ORCA-job NEB_reactant E -35.803247360100
  C           1.27309976516886      0.31611560765889      0.06998770819220
  C           1.32355376330326      0.51932501045431     -1.24132978434905
  I           2.01935487146862      1.44754858285830      1.68433509665560
  H           0.77767376341701     -0.56840250553903      0.42816133930892
  C           0.68419042731734     -0.49733210657231     -2.17232936190698
  C           4.14091314344107      3.98950763955162     -2.76031467602389
  C           2.92464220707788      3.49380830054716     -2.61057038580549
  C           2.50919308556926      2.61767562711934     -1.47008410959364
  O           1.84518694882640      1.48730755347351     -2.02347528413225
  C           4.56513727296408      4.87899942643647     -3.88301734102387
  H           4.91186698528471      3.75646723475944     -2.03655250937949
  H           2.14270341148235      3.70693651557713     -3.32560909342740
  H           1.81959529781434      3.16734086300462     -0.81520974939465
  H           3.38457187332222      2.30524103835062     -0.89145963503717
  F           0.14546558106301     -1.56078049629610     -1.50960041933975
  H           1.43925322594343     -0.88659160303370     -2.86394035023342
  H          -0.12242438764421     -0.02210514639862     -2.74149945468496
  C           5.73400536057902      4.26847720712296     -4.65568101738032
  H           4.87685664355349      5.84376431716251     -3.47260750506929
  H           3.72491440526511      5.05254406509819     -4.55717712057338
  H           6.58500090822597      4.10910091317281     -3.99743628010333
  H           6.04114369083706      4.92891318196518     -5.46282784933305
  H           5.44510175571970      3.31093877352670     -5.08256221736531
