23
Coordinates from ORCA-job NEB_product E -35.812340812270
  C           2.92303000691915      1.65650928377291     -1.87911799371885
  C           1.66519921880128      1.27427949784491     -2.62960603803656
  I           2.51114075994984      1.05887909026870      0.17610221834443
  H           3.75216493939287      1.01439396310247     -2.17771398490094
  C           1.68518768659267     -0.17614266200782     -3.10093167758838
  C           3.33163468278098      3.12972557654784     -1.95523611052186
  C           2.31593505283370      4.03701402243527     -1.32138285286596
  C           2.55135682097123      4.74281279862976     -0.23166599085390
  O           0.74545220100687      2.01152262782277     -2.84107032460546
  C           3.55733834188731      3.54795190230129     -3.41911679979847
  H           4.28037259955961      3.23331308428171     -1.41349792758633
  H           1.35670285943472      4.07895100237783     -1.81565509883510
  H           1.80266706101727      5.38263239211927      0.20190308079904
  H           3.50161350644790      4.70891465123969      0.27770979883590
  F           0.51166637050465     -0.51563332747390     -3.70182279887375
  H           1.83703764690676     -0.86248609883476     -2.25989028855818
  H           2.48324366644356     -0.31405398796457     -3.84181000047100
  C           4.70106695404618      2.80519308208903     -4.10102847169890
  H           3.78250841520979      4.61668038316022     -3.41709704547147
  H           2.63382582076871      3.40861949788139     -3.98375706251582
  H           5.60952304198185      2.86693801646936     -3.50493753474644
  H           4.90208382824666      3.25084051813944     -5.07206121764915
  H           4.46224851829645      1.75584468579721     -4.26111587868282
