23
Coordinates from ORCA-job NEB E -43.157571668780
  C           0.44244867493144     -0.56241949582059     -0.38675082471618
  C          -0.38163405516690     -0.35067456591561      0.83687397297264
  F           1.71354072278942     -0.95163198404606      0.06230753244795
  H           0.07863285815981     -1.44269710894894     -0.93353827532524
  C          -0.78266732081220     -1.55253282200180      1.62309220322577
  C           0.52113610608435      0.64738557896184     -1.33336279190147
  C          -0.10658276228382      1.82141918007940     -0.71871329902094
  C          -0.19839324705249      1.97652604973538      0.74323956247166
  O          -0.58513363891136      0.80897690192478      1.42890296060165
  C           1.97713747314164      0.93906711799026     -1.82060956421626
  H          -0.00157659005490      0.38042523070512     -2.26649207769595
  H          -0.17960163378234      2.72186365191188     -1.30304918033638
  H          -0.94047408726686      2.73558711576457      1.00873613460017
  H           0.75804109991637      2.28785307705344      1.19250085202058
  C          -2.06990940764947     -2.18102538740869      1.07027306991630
  H          -0.94883652418981     -1.24709870401395      2.65674741576250
  H           0.01866385615920     -2.29502254023891      1.59248983132071
  H          -2.88691063841489     -1.46548711024880      1.10890416484344
  H          -2.33755468447293     -3.04800396394959      1.66735013714653
  H          -1.93579091851370     -2.50048350987399      0.03993134401057
  Br          1.90770246406828      2.32913636139369     -3.19677456789629
  Br          3.13365388826774      1.60052943204760     -0.39831320009356
  Br          2.80410836505342     -0.65169250510103     -2.67374540013820
