23
Coordinates from ORCA-job NEB_product E -43.222555977120
  C           2.51648374115136     -0.41756564250025     -2.76131368354148
  C           1.06854198040961     -0.97791210370421     -2.71457434711687
  F           2.85692121924486     -0.14828737227181     -1.45147323457609
  H           3.22742642706530     -1.18452959873136     -3.09733559562266
  C           0.99329568247319     -2.40501553494856     -2.26479568607433
  C           2.60369820532627      0.86420188805511     -3.60506866918801
  C           3.58968299253287      1.84533349270812     -3.03254398881736
  C           3.31224188325153      3.12289632145089     -2.85615746020310
  O           0.13068752558749     -0.27788445960142     -2.97837768989812
  C           2.97540689870325      0.53406117193518     -5.04314113151381
  H           1.60234592396975      1.32068710088070     -3.61913146363751
  H           4.55723507700912      1.43981619456607     -2.77081439435160
  H           2.34948169654940      3.54024944656421     -3.10276578177547
  H           4.04150961886412      3.80352231570808     -2.45407977120938
  C          -0.44206715047788     -2.88040976100559     -2.09141259963442
  H           1.55452852624242     -2.48998765123340     -1.32970393711643
  H           1.51153084557938     -3.01676168194594     -3.00951733956657
  H          -0.95080388636759     -2.27874542212651     -1.34295686382324
  H          -0.45959130787940     -3.92059284414342     -1.77904894774548
  H          -0.98250126690376     -2.78403894721101     -3.02941278094846
  Br          2.83903892450099      2.12294444743788     -6.15873445027014
  Br          4.80190016892151     -0.14420626939390     -5.19180351224014
  Br          1.79530627424624     -0.83197509048889     -5.80383667112934
