21
Coordinates from ORCA-job P E -30.591699229330
  C          -1.28679986370186      0.34397555860731     -2.35402333902371
  C          -0.05575998390783     -1.67571605404451     -0.98235351214860
  C          -1.41772039975867     -1.93606616520430     -1.55093361008363
  C          -2.00331662349872     -0.96705205407868     -2.23478898855788
  C          -0.82628261130558      0.77186358995102     -0.94491087627863
  C          -0.06261421277678     -0.34678492811067     -0.22537829633948
  H          -1.86960077839434     -2.90267017140926     -1.39905488994457
  H          -2.98011669945356     -1.05053194711196     -2.68223442455709
  C          -2.15320675950187      1.43326472378589     -2.97434556924237
  H           0.26491792195181     -2.47936333724096     -0.31879254627481
  H          -0.39641071632662      0.22143835749975     -2.98549776688420
  H           0.66077705377407     -1.62038380731941     -1.80901657041073
  H          -1.72014364364274      1.01205404211938     -0.36301114224857
  H          -0.48773700171328     -0.50108707164371      0.76560498359471
  H          -0.22733108418736      1.67872809565143     -1.01563024689898
  I           2.00673321458198      0.23726116010251      0.19280278265964
  O          -3.32219416167291      1.27346774938813     -3.21029580745907
  C          -1.44246107718968      2.73404061611946     -3.25125034446532
  H          -0.40011018217936      2.57953466788966     -3.51425626174813
  H          -1.48785039815420      3.35195859287386     -2.35506519145968
  H          -1.95487199294250      3.26781838217505     -4.04767838222890
