21
Coordinates from ORCA-job R E -35.679295500860
  C          -1.40685124895687      0.05563595723669     -2.74383588892605
  C           0.05009754018648     -2.47971426401774     -1.95815530484391
  C          -1.22736976453600     -2.19716505052761     -1.72676621859458
  C          -1.95407966272652     -1.06010002693012     -2.26572067190629
  C          -0.61421395111983      1.77693297638351      0.19330849721344
  C          -0.12307569170222      0.65583963218651      0.69203694121322
  H          -1.81485901162911     -2.86195796935563     -1.10588752990354
  H          -3.03389549652205     -1.15457689029438     -2.25763254941928
  C          -2.20181912106281      1.18761010755529     -3.30105754779595
  H           0.52675034849630     -3.33630966217174     -1.51496690505402
  H          -0.33672984402287      0.20692974873076     -2.73455710492179
  H           0.66656913867276     -1.86407310793191     -2.59068758414623
  H          -1.40916998599691      2.31498062346428      0.67674142655144
  H          -0.44861644826897      0.17363167402617      1.60091685188215
  H          -0.23125125886047      2.18631630682976     -0.72788388895241
  N           0.93729661964987     -0.05461487450497      0.03444808673406
  F          -1.89908534994927      2.36654959540042     -2.64291010588038
  H          -3.27949806801423      1.03374237039421     -3.18617612131809
  H          -1.95737621187583      1.36325005059469     -4.35608653382348
  O           1.35210466630390     -1.04680500481991      0.59460460444018
  O           1.35208280193466      0.36810780775173     -1.02181245254848
