17
Coordinates from ORCA-job NEB E -29.923714896810
  C           0.52035602038238      0.72946272318392     -0.21692901566921
  C           0.06507413552518      0.23867005848619      1.18107760502023
  N           1.77026577839653      0.26420963366540     -0.79235361309839
  H           0.44912613666631      1.80281790651803     -0.06075876984418
  C          -0.23535564084315      1.49806487268668      2.05341987339381
  C          -0.63773354123159      0.32951847435709     -1.15405052055280
  C          -1.07207943240394     -1.08750009504414     -0.92412393709107
  C          -0.38379830607594     -1.75128274127745     -0.00967686606362
  O          -0.16004932378998     -0.69853781501501      1.89234460803868
  I          -2.25586153536466      1.64285278024358     -0.61911826176218
  H          -0.36028985178783      0.43988493310915     -2.21583476653155
  H          -1.79159836395741     -1.58970560234594     -1.50650296000148
  H           0.68177509430334     -1.77667245605877      0.17428541719238
  H          -0.64170442593858     -2.70558990798840      0.43827702568120
  H           2.36076127359846     -0.47707530869851     -0.45189623211840
  H           2.33400760579563      1.12594531580394     -0.78697041692371
  N          -0.64289562327470      2.01493722837422      2.99881083033026
