20
Coordinates from ORCA-job NEB_reactant E -41.830498985140
  C           2.50615597039230      0.67466858423270     -0.97020483385609
  C           1.34025455323189      1.20537698052938     -1.32768168590366
  Cl          3.83923163544760      1.44244801304696     -0.18631590540851
  H           2.69713959242668     -0.36322641803730     -1.18650706295082
  C           0.29580583435915      0.34788209934629     -2.01323592589776
  C           2.91089150858307      3.70091530795816     -2.68285404355762
  C           2.71807209252214      3.99147447446214     -1.40761638141626
  C           1.57703358981451      3.48277063047303     -0.58127605940920
  O           0.82058539214460      2.45480908204742     -1.19027144268548
  C           4.05864085573683      4.22406780415458     -3.48953678723231
  H           2.26013098452577      3.03580582602077     -3.23063146342807
  H           3.39342960792763      4.65414059852318     -0.88550831736399
  H           0.85579086662529      4.29544805923367     -0.43294144818235
  H           1.94060666779565      3.16869344376223      0.40286267569498
  F           0.73057341179977     -0.92431566643784     -2.23866614393386
  H           0.03200553878819      0.78227404075917     -2.98406171092867
  H          -0.60220732207758      0.28278156674695     -1.38844230418303
  F           4.88791618472574      5.00747161547732     -2.76188462197935
  F           4.81878669463609      3.19993239681331     -3.96239639362464
  H           3.72935634059469      4.81028156088788     -4.36553014375330
