19
Coordinates from ORCA-job NEB E -41.198789456410
  C          -0.48746802007439      0.72799579219018      0.54590026022849
  C          -0.47918763086881     -0.51070963462791      1.24208177117610
  O          -1.65459825134641      1.22457169085784      0.04408178580045
  H           0.09606308367676      1.54675358708167      0.96305747303094
  C           0.27745077095108     -0.77783597205597      2.43638466941145
  C           0.28817037862196      0.89045985746559     -1.98435596523321
  C           0.36781219248042     -0.00678161874990     -0.92443543930036
  C          -0.51835930266097     -1.24906113219138     -0.91399559766879
  O          -0.74988222410916     -1.58763377118597      0.45297844754872
  C           1.31013362423087      1.78978877049110     -2.26217568452960
  H          -0.62692877933260      1.01036805051851     -2.54844978579168
  H           1.37013247162283     -0.18417924199946     -0.53881564052505
  H          -0.03810967065339     -2.11174290950669     -1.38320777682940
  H          -1.46909692493915     -1.05278112347508     -1.42497177678456
  H          -2.31091398109501      0.52400573186953     -0.06964866208221
  Br          0.12151606406985      0.57770605995420      3.77995310297115
  Br         -0.09946979219611     -2.51295196658812      3.14346424624491
  Br          2.44384369765728     -0.82656297259254      1.94727825520856
  N           2.15889229396493      2.52859080254439     -2.50512368287589
