19
Coordinates from ORCA-job NEB_reactant E -41.239571048950
  C           2.01300278587839      0.23385464966737     -0.47560649852811
  C           1.79288865813406     -1.07618391882952     -0.66191663474013
  O           3.00981008940833      0.89583518387207     -1.06220867542117
  H           1.41716949686922      0.85158360795173      0.17837068877135
  C           0.70657683015034     -1.83911088036243      0.00412992541345
  C           0.59613192504931     -1.00805209844714     -4.25907691828506
  C           1.76193722303100     -1.07984615819109     -3.62002178304883
  C           2.15593261078387     -2.22067372210376     -2.73760254188079
  O           2.66305150705387     -1.78634632862430     -1.47258372863268
  C           0.26725305489900      0.08268184151321     -5.08928169320017
  H          -0.15647016225776     -1.78162910954836     -4.17962283773029
  H           2.48713207297957     -0.28192646113761     -3.72118292336168
  H           3.00008292927192     -2.76278355540564     -3.17664292089673
  H           1.32399249534901     -2.92249821604993     -2.61198504214198
  H           3.54551442391505      0.27219353087112     -1.58092434130196
  Br          0.23672387207916     -1.12567584426402      1.75395087421396
  Br         -0.97827749956328     -1.81435116549756     -1.07817549761433
  Br          1.23712639385527     -3.69864717221143      0.23289433367635
  N          -0.00127870688632      0.97267581679729     -5.75921378529120
