19
Coordinates from ORCA-job NEB_product E -41.230192474270
  C           1.52881268867981     -0.33985419388168     -1.66527357530180
  C           2.55936152009834     -1.37600656644127     -1.22496244751926
  O           2.05987551469135      0.87343280078136     -1.20200391304139
  H           0.55717435018850     -0.55782791450442     -1.18693648809338
  C           2.42666039344810     -1.81918003162184      0.21808766778996
  C           1.32639419023748     -0.38764597272408     -3.19887165890309
  C           0.82026040787690     -1.74537662831073     -3.61752424891873
  C          -0.44820590282515     -1.99199933496493     -3.88019247725503
  O           3.40068919258902     -1.84957551829768     -1.92451601674523
  C           2.56250870106816     -0.07105094809321     -3.88580399171882
  H           0.58813416332723      0.38283839996597     -3.45982563827162
  H           1.56910142940079     -2.52230886319165     -3.67526131369878
  H          -0.78264283564342     -2.97587842105390     -4.15709712294695
  H          -1.20473936710971     -1.22510784304229     -3.83348240335958
  H           1.49084341192139      1.61114855381822     -1.45225814129291
  Br          1.92370500088462     -0.44677935686572      1.46081731234862
  Br          0.96870083835906     -3.13841368435273      0.08949665626698
  Br          4.03405223127246     -2.70021628259847      0.80238064211235
  N           3.51771407153507      0.19960180537905     -4.44867284145134
