25
Coordinates from ORCA-job R E -34.431026915410
  C          -1.20606493672821     -0.19172818024324     -2.89073793275200
  C          -0.45780963880146     -2.75470566212014     -1.47807878155729
  C          -1.67674240164990     -2.22853686300050     -1.57317010877295
  C          -2.03941000276292     -0.98026652490806     -2.20288111116490
  C          -1.36933489486699      1.10631788038640      0.19420421501438
  C          -0.30513952654092      0.39509265232859      0.54563853596977
  H          -2.50527018297960     -2.76436783133724     -1.12646371311405
  H          -3.06899708714404     -0.66628739347080     -2.11064348898992
  O          -1.61646717835477      0.97681530315662     -3.42766507990153
  H          -0.29028324878472     -3.69613951314069     -0.98395911565568
  H          -0.16373721395079     -0.44567548191115     -3.03945611465024
  H           0.41128185514684     -2.27524726073729     -1.89355911813611
  H          -2.29549298629427      1.07029692059403      0.74140894415622
  H          -0.31945019298560     -0.26290240649940      1.40224620105615
  H          -1.33248653533194      1.75368181084762     -0.66658874217537
  C           0.95242914510235      0.44568781927907     -0.22520626267229
  C          -0.60089669096627      1.76055973147803     -4.01930417559131
  H          -1.06659141570789      2.70114347166758     -4.30792401375763
  H          -0.19457045471916      1.26863860871382     -4.90925843351555
  H           0.20732409853956      1.94786890334503     -3.30697546786029
  O           1.09335822868166      1.12996518549400     -1.21580776518396
  C           2.05177345751815     -0.43127488004248      0.31734209438695
  H           1.70270120163101     -1.46105396865564      0.36138905380514
  H           2.30021322478401     -0.11561757571815      1.32914110833003
  H           2.93628337716586     -0.36675474550600     -0.31009072726758
