25
Coordinates from ORCA-job TS E -34.421406749240
  C          -1.03564750881327      0.20759147838248     -1.30074137547194
  C           0.04887516732780     -2.01531842127276      0.19369734159044
  C          -1.26767883533406     -1.89322163485076     -0.09562453145287
  C          -1.80262813736715     -0.84438314550906     -0.86868974199311
  C          -0.60719648914383      0.99455928242155      0.68887270581944
  C           0.17563467991650      0.11101842966844      1.38017295458950
  H          -1.97668003401728     -2.54238580182364      0.40062103728340
  H          -2.87474795338762     -0.75652355716869     -0.96182175469784
  O          -1.62792587038081      1.23317068920823     -1.95720104338304
  H           0.38206052052451     -2.77468658427506      0.88147830793822
  H           0.03260879144136      0.10182578263910     -1.44900529899510
  H           0.81469392861063     -1.56417041517185     -0.40799866849472
  H          -1.63258519790047      1.16335649186637      0.97071733036743
  H          -0.22164683171211     -0.47120629742774      2.19506097540409
  H          -0.11350585900417      1.79611315975863      0.16414414168001
  C           1.62476824541055      0.13175387451160      1.18182535231302
  C          -0.75937485777322      2.12123812255140     -2.62515347258427
  H          -1.37947319306043      2.93060530832472     -3.00594588778671
  H          -0.25554298511432      1.62377762270941     -3.46001423169574
  H          -0.00163622435160      2.52890494239786     -1.94887484250353
  O           2.14511923111872      0.69348266148805      0.23496762455441
  C           2.43809567940429     -0.56819455842947      2.24662384119955
  H           2.13997216283515     -1.60980663999504      2.33004012338287
  H           2.25829344729739     -0.08687220251971      3.20628295652128
  H           3.49614812347346     -0.51062858748402      2.00656615641521
