19
Coordinates from ORCA-job NEB E -44.117208105520
  C           0.86140257357447     -0.02280687344324      0.57663619601859
  C          -0.28232751985043     -0.84062900901463      0.62134586273491
  N           0.79752614334381      1.13849659846427      1.47199949406600
  H           1.82507641358054     -0.51994806888368      0.66955069783538
  C          -0.13024811681985     -2.33350596084841      0.43226935986949
  C           0.73771217775641      0.79500149655712     -1.08269442091848
  C          -0.51382938834756      1.40686471177093     -1.01778590496267
  C          -1.66898786108555      0.55987752709630     -0.77095683055375
  O          -1.48247651068462     -0.32794830070180      0.44900199993359
  I           2.44145207030116      2.05410691170626     -1.36707042511310
  H           0.86457624263878     -0.10554693244032     -1.67037185467517
  H          -0.60554761351854      2.46644997316237     -0.84573120361866
  H          -1.84656597690963     -0.17442410252426     -1.56009169103915
  H          -2.57282395102390      1.12102249070275     -0.54982182990973
  O           1.71040465478840      1.24495335415512      2.25150669747547
  O          -0.17651703054839      1.84497159289479      1.39841722504936
  F           0.29684584773444     -2.59393150424446     -0.84245076072282
  F           0.81727998330344     -2.83835439404282      1.24599775203146
  H          -1.07295213823300     -2.87464951036628      0.59024963649926
