19
Coordinates from ORCA-job NEB_reactant E -44.143903657890
  C           2.02214834035591      0.13232919221028     -0.23006424896868
  C           1.57421215611513     -0.53285318967088     -1.31710709392965
  N           1.83848992917266      1.49519227242669      0.12552143296304
  H           2.62364536580063     -0.39380160231301      0.49558072253435
  C           1.83242214585105     -2.04426139830779     -1.35672641201912
  C           2.47227924038057      2.19476128984993     -4.48311323831000
  C           2.21335687708792      1.71542898215480     -3.28148654640442
  C           0.87015005473131      1.16651025010500     -2.90420440331937
  O           0.96723661094870     -0.17495589749355     -2.43023748098948
  I           4.33223727420005      2.99982614731381     -5.01617401464482
  H           1.74408634466953      2.22869167638755     -5.27584628167069
  H           2.97514213693016      1.69981283727629     -2.51482318957586
  H           0.21795559969892      1.09232287124401     -3.77658447950994
  H           0.40503016628092      1.81182670575228     -2.14628864780911
  O           2.68776151124115      1.98733937131182      0.83571004315020
  O           0.83515288418357      2.07213927487147     -0.25522307431486
  F           0.67466714854965     -2.70627342684745     -1.54411200510332
  F           2.63039719629246     -2.34220102791125     -2.40409192913758
  H           2.30602901750970     -2.42873432836000     -0.44172915294068
