19
Coordinates from ORCA-job NEB_product E -44.145529181710
  C           2.70862152777425      0.54472570855972     -1.34616658135896
  C           1.59820907286391     -0.45154898476491     -1.03602265081454
  N           2.81351619379637      1.47834662209203     -0.17272086488166
  H           3.66843548501897      0.01702408717874     -1.40766470282901
  C           1.69526594238516     -1.77863175380306     -1.82898925364790
  C           2.37476227710247      1.22266621830868     -2.68032081469332
  C           1.02643324682498      1.85502537503099     -2.71851451845811
  C           0.12350718712282      1.54339405351931     -3.63093160281133
  O           0.68130186894190     -0.24155336392278     -0.30273375971269
  I           3.91623060973134      2.70408861645088     -3.14621285205281
  H           2.47065614897678      0.48303733483390     -3.47736741356628
  H           0.83112599741647      2.60510550282972     -1.96626278345121
  H           0.30930007024268      0.80296611787208     -4.39219928420985
  H          -0.84346726904666      2.01369616563757     -3.64304249433731
  O           3.19716896596785      0.96150992262171      0.84199914999999
  O           2.51499196188725      2.62737438161113     -0.32674571441443
  F           1.09876462805170     -1.60978542998067     -3.03226759446179
  F           2.97741151240854     -2.11165456053413     -2.08058034591223
  H           1.19896457253322     -2.60608601354092     -1.30245591838655
