14
Coordinates from ORCA-job NEB_reactant E -26.126590293090
  C           1.82151888567663     -0.03366144263396      0.13144560921263
  C           1.42415752856751     -0.56417923351680      1.28115480360971
  I           2.46326360336678     -0.92618044098556     -1.67462621540716
  H           1.82635036929279      1.03755818715334      0.04317758862245
  H           1.13215046745948      0.14373149657285      2.05318185711621
  C           3.62351054335880     -4.29393228408475      1.68731498310261
  C           3.10438887491439     -3.21684810192433      1.12401162776557
  C           1.62665157152087     -2.96809506143279      1.06034853624153
  O           1.25682767399877     -1.79879644791389      1.77750639451977
  Cl          5.31288474487806     -4.58060827503841      1.76255723874573
  H           3.02971441571628     -5.08151312995118      2.12622071471363
  H           3.74423500921955     -2.45377409535079      0.70651877715257
  H           1.08639066841865     -3.77667524110976      1.55932082129641
  H           1.28865564361143     -2.91042592978394      0.02096726330835
