25
Coordinates from ORCA-job NEB E -42.928229495850
  C           0.55813020142350      0.09057207031423     -0.34781674268346
  C          -0.56198663848844      0.82125177991037     -0.78990430931005
  C           0.59209136533754     -1.39063984288397     -0.64494692293539
  H           1.51959510856282      0.58208854114166     -0.47221707359311
  C          -0.47896174140527      2.31462585915855     -1.00556009881195
  C           0.17845964807457      0.23898725169738      1.51539281347901
  C          -1.08711102480151     -0.34786909316781      1.65694885835259
  C          -2.16665135674371      0.26967995233024      0.96687368770820
  O          -1.75322341504872      0.32743589129060     -0.59538517148774
  N           1.28620875958724     -0.41884963876182      2.18347062062082
  H           0.29044099124526      1.31581255911681      1.61395595264486
  H          -1.12513388382018     -1.40121105212004      1.89053498725416
  H          -2.31667365914798      1.33006833091818      1.16156873784135
  H          -3.10111830753705     -0.27798298391391      0.95081158737894
  C           1.16058522047203     -1.60864759868762     -2.04580147408460
  H          -0.42163574915166     -1.79078781397027     -0.59681050499503
  H           1.21007708144135     -1.92775324062899      0.07492378208084
  H           0.53744336104866     -1.11801213306460     -2.78983618663901
  H           1.19751299329441     -2.67164858590269     -2.26833983552390
  H           2.16832397356680     -1.20611859069667     -2.11929837186701
  F           0.80811825798576      2.73025314564596     -1.20183086072440
  H          -0.86383338740904      2.85760073565431     -0.12756286861563
  H          -1.06163866244288      2.60731374383463     -1.88584202993328
  O           2.18072684812480      0.29519713723744      2.57377351582362
  O           1.25025401583169     -1.62136642445196      2.30289790802013
