25
Coordinates from ORCA-job NEB_product E -42.963348217300
  C           2.47105400833960      0.37084858500868      1.71484830506126
  C           1.30549780470089      1.34012391350239      1.56845387528133
  C           2.31655627678330     -0.76058441464257      0.68179619242725
  H           3.40059314177674      0.91366906131364      1.50487856349947
  C           1.52887041588125      2.38119027006592      0.48013645591257
  C           2.54492770251743     -0.14323097525616      3.16902955422553
  C           1.68045796174321     -1.32813111844568      3.47587405998545
  C           0.52942558129293     -1.23599329182883      4.11388641869267
  O           0.31981357349910      1.30852469532726      2.24853278825653
  N           3.97007845969537     -0.43872439028502      3.50923562384182
  H           2.26151084081163      0.68796506170455      3.82774277082949
  H           2.06193360500984     -2.28691695475607      3.15617857493845
  H           0.13338396192733     -0.28955307830488      4.44086757005285
  H          -0.07495046472281     -2.10412288106864      4.30928861440201
  C           3.56179324692532     -1.63534040584675      0.58818869888228
  H           2.12945555367854     -0.31686750529497     -0.29773542845884
  H           1.44544119473289     -1.36450000626679      0.94042039558757
  H           4.44119671232353     -1.02979010786935      0.37918830375609
  H           3.44425162630410     -2.35611330476129     -0.21697940413447
  H           3.73857673135737     -2.18954957764306      1.50582797314569
  F           0.38302176934365      3.06441981337583      0.19947419341113
  H           1.87861345274246      1.92557410527375     -0.45180082393911
  H           2.26828397788493      3.11205517083352      0.83214949352155
  O           4.79535993096363      0.36652066736582      3.14857779642630
  O           4.20105293448776     -1.43537333150127      4.14373943439514
