25
Coordinates from ORCA-job NEB_reactant E -42.952847322460
  C           1.74303888588619      0.11717130931448      0.36130287661568
  C           1.34624011057809      1.21147586773927      0.99995694690195
  C           1.91478495089144     -1.31404159852165      0.76937402757399
  H           2.00709348814849      0.28004772646536     -0.67549757578376
  C           1.26383354571166      2.54751935317997      0.28917735674119
  C           2.99352868384267     -0.89516223889105      4.25144492588300
  C           2.56651133469455      0.11658641922551      3.50487582000286
  C           1.13903183741051      0.50811966555116      3.31803545616472
  O           0.93886131958409      1.44906116082591      2.29694302750667
  N           4.39182434000026     -1.18689626087156      4.36513524022563
  H           2.36573158694079     -1.56457969934755      4.81914273161492
  H           3.29843282491793      0.72383362315390      2.98452653661242
  H           0.79417578643332      1.02546004459777      4.22365564747188
  H           0.49788065233364     -0.37400605105457      3.18301581735258
  C           3.37111859879044     -1.74954773750966      0.59152940618378
  H           1.28810939638223     -1.92316610383283      0.11074975140756
  H           1.59976925024384     -1.51049875397106      1.79110317341673
  H           3.68238916014815     -1.61433079762952     -0.44114884105341
  H           3.48526700111130     -2.79939913222151      0.85113057452091
  H           4.03381209293575     -1.16347927278351      1.22424466450243
  F           1.30600111980100      2.41856869461866     -1.06994027206132
  H           2.10368513003580      3.19127960676452      0.57722859957466
  H           0.32142171095216      3.04244803500828      0.54581139704044
  O           5.17126393977548     -0.52560793907161      3.71388576551725
  O           4.69709325245025     -2.09175592073871      5.11051694606724
