21
Coordinates from ORCA-job NEB_reactant E -40.335573733380
  C           1.57226201518910     -0.14503515904681     -0.02789749745931
  C           1.52597203149342     -1.01286882094210      0.97896254883464
  C           1.80188177001196     -0.46943887884259     -1.46381033847514
  H           1.44899436739939      0.90510800178298      0.19061533747236
  C           1.36060568647614     -0.62958672040730      2.41842349895924
  C           1.01043675038295     -4.06610798832678     -2.25096975349814
  C           1.53550596838218     -3.75233311826367     -1.06755298759116
  C           0.76915296938910     -3.09016379363265      0.03223420437260
  O           1.62202532084355     -2.37780556190049      0.91898457361976
  C           1.75042783524032     -4.72566946292400     -3.25172643858207
  H          -0.01480177083372     -3.82910118755682     -2.50585514177198
  H           2.56020555458729     -4.00455758070837     -0.82856049241285
  H           0.29505394852280     -3.87283931741761      0.64372452227470
  H          -0.01943239575672     -2.43857290855382     -0.35873184185709
  H           2.19161724305395     -1.47475269473581     -1.59800668774643
  H           2.51536350892195      0.24181552138976     -1.87577562169341
  H           0.87576666126542     -0.36684003792802     -2.03065881197419
  Br          1.45923776344769      1.25746857490133      2.80294112444763
  Br         -0.40393376414755     -1.28659626878664      3.02232272280612
  Br          2.72484955193466     -1.54280136520693      3.47821787297507
  N           2.34640898419611     -5.25712123289368     -4.07398079270036
