21
Coordinates from ORCA-job NEB_product E -52.544045036720
  C           1.44184568438965     -0.47179068869480      1.85447937254845
  C           2.78926594482662     -1.10319252749779      2.21186263754783
  C           1.28728978167098     -0.07464514411710      0.39962135156846
  H           1.47193415751910      0.47533253803209      2.41425656680021
  C           3.22939908962345     -2.45890024159194      1.58776133658754
  C           0.29777828316604     -1.32317189589235      2.50171585820477
  C          -0.51890348473502     -2.18674603532773      1.58098779949797
  C          -1.76523928303724     -1.90150020100965      1.24584778942421
  O           3.55383663288931     -0.56088489397389      2.94947765098760
  O           0.98138297893961     -2.09390928524056      3.47412529115769
  H          -0.38671642280996     -0.61473216450754      2.99773353276618
  H          -0.05472684883635     -3.10805471840935      1.26331957187384
  H          -2.25838218109191     -0.99998970343269      1.57164118242189
  H          -2.33453206242699     -2.55774734999432      0.61183096807288
  Br         -0.31738023339871      1.02316467065056      0.22729919697233
  Br          2.81997819527169      1.04963385035547     -0.10666109279399
  Br          1.15715935121049     -1.49476154518913     -0.90666670448069
  F           3.86326397907011     -2.22769795077306      0.42610397314840
  F           4.08893307098044     -3.06913858119141      2.39563257409606
  F           2.24718690389934     -3.32219658695114      1.33014959395441
  H           0.37002646287936     -2.71897154524367      3.88058154964396
