23
Coordinates from ORCA-job NEB_reactant E -36.831998931220
  C           1.08788263427265     -0.04200485958601      0.24206633817379
  C           1.53444165697900      0.92590027959911     -0.56876467745567
  N           0.41399240068495      0.18299676609518      1.42291527841087
  H           1.31251891553540     -1.07405496088220      0.01792597028556
  C           2.35202055375947      0.62887117294524     -1.79372770377229
  C           3.98787955170298      3.95237049941907     -0.85865677880784
  C           3.54999741989396      2.97917679881724     -0.06854784796255
  C           2.16186365163718      2.96948870279294      0.49228137557420
  O           1.22532833566311      2.25960216095129     -0.32992397288582
  O           5.18586692970465      4.06094275800750     -1.47312229419825
  H           3.37713493349908      4.81709451366350     -1.08590560343653
  H           4.14968629053440      2.10905075230084      0.14674026647393
  H           1.75137858739816      3.98058475744734      0.54421233080677
  H           2.17085057034430      2.52266285652975      1.49580907267632
  H           0.03094144272386      1.11517637760806      1.49569284376146
  H          -0.22256722762850     -0.54207105211831      1.71250465117495
  F           3.63023102924096      0.19196495025231     -1.46797364434303
  H           2.47539530149599      1.53370518829383     -2.39408862766875
  H           1.91444122666903     -0.17422495732216     -2.39538861156640
  C           6.09654986031990      2.99586759938399     -1.31042031190329
  H           6.96224626912175      3.24463929705334     -1.92149932014051
  H           5.66599201014670      2.04914687834440     -1.64842207844340
  H           6.40262765630096      2.89661352040376     -0.26450665475352
