22
Coordinates from ORCA-job NEB E -44.374392020630
  C           0.73444393419364      0.95936302048010     -0.20723173848859
  C          -0.28754722347404      0.61852295280004      0.70259905421637
  C           0.41803904605503      1.86006815899850     -1.34441735510608
  H           1.69059906800982      1.20200876127131      0.25166958445819
  O           0.13424181853357      0.43321449631095      1.97296561682822
  C           0.99517147981114     -1.02160192288411     -0.79853786223123
  C          -0.27376924353076     -1.37417224042590     -1.25369737848298
  C          -1.33182104486335     -1.40435935148969     -0.32244365422005
  O          -1.42573361078960      0.20567387587865      0.31102186927029
  C           2.09745126023030     -1.05391930946206     -1.69183736552216
  H           1.28442470014442     -1.30296770172347      0.21189091437898
  H          -0.49622934937328     -1.29091460359140     -2.30647341531706
  H          -1.16045383787887     -1.90553958736699      0.62358335607797
  H          -2.33495009516314     -1.52286506383692     -0.70694713794321
  Br          0.15145254295691      3.70483243007932     -0.57819797519974
  Br          1.88676053479759      2.03142736433983     -2.61629153047008
  Br         -1.19238607749071      1.48155120509499     -2.33638678373238
  C          -0.80312766230875     -0.03676819481541      2.93058994429857
  H          -0.71800602383382      0.60477221713611      3.80682892801943
  H          -0.55394141596671     -1.06371460576910      3.20616138027932
  H          -1.81797913792285      0.00688036756563      2.53194606819876
  N           3.00336033786344     -1.13149226859039     -2.38679451931253
