22
Coordinates from ORCA-job NEB_product E -44.432859047580
  C           2.54123096056853     -1.94238929892479     -0.28796841700868
  C           1.48505634698142     -2.46136526039205      0.70879345338317
  C           2.41947921715650     -0.45052413650568     -0.54225670234826
  H           3.51372498411189     -2.11214422581282      0.20153255440150
  O           0.97230305762402     -1.49638667197178      1.45079946728316
  C           2.49902360601280     -2.86707415429780     -1.53670195274707
  C           1.45317732719692     -2.50050885816650     -2.55990453583686
  C           0.29593783633964     -3.12835969665114     -2.64666094254593
  O           1.19918529329991     -3.62317076213092      0.79865605760676
  C           3.80300644234989     -2.96201267627188     -2.15787207052272
  H           2.26635617187715     -3.86784419706022     -1.14241472467815
  H           1.71014769704514     -1.70737618220145     -3.24894439971533
  H           0.03235144214427     -3.93154381907025     -1.97759830791586
  H          -0.43809551942586     -2.85196794518985     -3.38280453114181
  Br          2.97516171457342      0.54380540306419      1.04947884784316
  Br          3.59245268771265      0.15281067223734     -1.98696575246758
  Br          0.61006599814760      0.10864179768720     -0.98349033600919
  C          -0.00249375829409     -1.87099376281070      2.41926107640096
  H          -0.19718022342783     -0.97764812424359      3.00613229706004
  H           0.38340232056054     -2.67472489209873      3.04770151734176
  H          -0.91117359907919     -2.20901473219196      1.91897290225509
  N           4.83147999652470     -3.07140847699659     -2.64244550063819
