22
Coordinates from ORCA-job NEB_reactant E -44.405885812520
  C           1.61480388978542     -0.07109883778312     -0.27274781656941
  C           1.21828122101896     -1.22749633927579      0.29875842120665
  C           1.13677018143419      0.53604353378746     -1.50841955558369
  H           2.37362702441083      0.47883818607962      0.26422180343862
  O           1.74557334872322     -1.50313642285630      1.50299187967572
  C           2.91177976132645     -3.78162076416654     -1.53182648686120
  C           1.67342396723322     -3.86958250550147     -1.04928382887408
  C           0.61138713604960     -2.85762872154321     -1.34177353658964
  O           0.29027672873920     -2.08896837727615     -0.17265372071952
  C           3.90929194055061     -4.72297109585209     -1.20482535077522
  H           3.21576439179259     -2.98635663144333     -2.20127737988969
  H           1.39808507916551     -4.67600307727818     -0.38217942895325
  H          -0.33301656320520     -3.34203004478813     -1.60067271786936
  H           0.92390166763890     -2.21398353851164     -2.16775313668700
  Br          1.31085294485633      2.48200874477211     -1.42602678251755
  Br          2.26221571314993     -0.03327426749059     -3.11183077972245
  Br         -0.71849080618786      0.14169144478982     -1.95237826291944
  C           1.29954753200653     -2.65596189493774      2.19907740332567
  H           1.65777417780141     -2.53131618558000      3.21838051187997
  H           1.73357046545695     -3.56163380188122      1.76802750310430
  H           0.21084990615298     -2.72748898728035      2.18957206507422
  N           4.72113029210020     -5.48013041598312     -0.92068080317368
