26
Coordinates from ORCA-job NEB E -44.101614032210
  C           0.54017173587438     -0.39776486133508     -0.24154233663663
  C          -0.56024284195145     -0.58155124084494     -1.09710348862532
  C           0.56210115485768     -1.12907521414075      1.08246182786140
  H           1.51316630482167     -0.37011658807804     -0.72470641782969
  C          -0.44254115386801     -0.33247744355979     -2.57246227548518
  C           0.15079295390175      1.42984877153258      0.20930162732803
  C          -1.13715909287057      1.39299111954584      0.75544242078104
  C          -2.17935746311602      0.90593424733245     -0.09658187386917
  O          -1.76001993030168     -0.54588638919557     -0.56403473414370
  C           1.26190788386569      1.94207102276588      1.08674115670285
  H           0.27000612637519      1.84359772108011     -0.78947818232646
  H          -1.24127436259150      1.27462192217521      1.82287770427787
  H          -2.28521016281966      1.42294492588645     -1.05015711307204
  H          -3.13873934925218      0.74348491480078      0.38123905570949
  C           0.91317371744102     -2.59646801338115      0.84326248669984
  H          -0.41855974220967     -1.06571629755358      1.55470231691682
  H           1.30425715783269     -0.69455364450734      1.75128280797022
  H           0.16455828719704     -3.06451744393643      0.20846407731747
  H           0.95115259516129     -3.12918879992645      1.78996086411484
  H           1.88313351514527     -2.68546903849316      0.35884121017150
  H          -0.72203315690422      0.70085620433280     -2.80001842792843
  H          -1.13262518907658     -0.97937551277563     -3.10975021910157
  H           0.56884846232225     -0.50959174360546     -2.92371327545547
  F           2.47685340432866      1.50662584712512      0.71126450278854
  F           1.32687359262065      3.28785371516609      1.03197180558330
  F           1.13076555321633      1.63092181959005      2.38173448025044
