26
Coordinates from ORCA-job NEB_product E -44.148625915840
  C           2.41812469319319      1.60439045588673      0.32233825988605
  C           2.00377067341180      1.72784689710692     -1.14619310355769
  C           1.65265444518293      0.38653712124652      0.87865593801400
  H           3.49309526198523      1.41953701101981      0.39662884067594
  C           2.97399262787531      1.13205312298918     -2.12498587742840
  C           2.06013593064574      2.91587691029575      1.05159416086789
  C           2.08125972597255      2.81995639188648      2.54953216761209
  C           1.00210379061083      2.92463795907841      3.30112272438558
  O           0.96086682659817      2.23585681806224     -1.46465597247206
  C           3.05670215717588      3.99234108476701      0.63784789723860
  H           1.07170307403618      3.23902596896675      0.70489108500951
  H           3.05909568660559      2.67806815832208      2.98972680501185
  H           0.02532019751646      3.08099383059109      2.87436860796893
  H           1.05125799836010      2.85558449755239      4.37376335724137
  C           2.38857085383075     -0.32390212754707      2.00720438867935
  H           1.49572013944558     -0.32544518902896      0.06416464185083
  H           0.66909897459730      0.71202305158432      1.21873017001069
  H           3.37146193752938     -0.65309196682707      1.67701890389397
  H           1.82405232488502     -1.19860831095186      2.32075186524490
  H           2.51107915478002      0.32898626220249      2.86586123328672
  H           3.82838189525732      1.80318733444504     -2.20326826458196
  H           2.51298856712112      1.03579866701355     -3.10403812580640
  H           3.33095110703058      0.16574355719425     -1.77759275377812
  F           3.14221774608752      4.16045674951952     -0.69141949866643
  F           2.75184502808387      5.19082229206863      1.15322725853442
  F           4.30864918218160      3.71172345255580      1.04682529087838
