22
Coordinates from ORCA-job NEB E -45.788520413650
  C           0.22024860751925      1.14882043071205      0.23691130729877
  C          -1.10347891062480      1.07314839032258      0.73305163339375
  C           0.37144955967087      1.54536282681415     -1.11453546051777
  H           0.99391937998535      1.53008941851392      0.89496393336588
  C          -1.31783019345684      1.32413933656089      2.22865966795152
  C           0.69341161692810     -0.79993465679419      0.08689881241717
  C          -0.36981253654308     -1.21874499447610     -0.74372586121933
  C          -1.65580701034612     -1.25111244164940     -0.24220569408477
  O          -2.03136662283097      0.56052970150201      0.06689765295934
  O           1.99468870935924     -0.83240291373864     -0.24379548447948
  H           0.60117465829198     -0.99052800216615      1.15346438679191
  H          -0.23255054322158     -1.18833621725728     -1.81441011623302
  H          -1.82301243621430     -1.51028540243739      0.79270126748444
  H          -2.47279224238325     -1.47241245709531     -0.90915847146358
  N           0.49101167159220      1.89394706073725     -2.19911223337841
  Cl         -0.62850865352161      2.89718753145909      2.68668526466989
  Cl         -3.04246734689485      1.30589634764545      2.60849206272428
  Cl         -0.50957339318091      0.06056056352698      3.21078066748177
  C           2.36623468414422     -0.98721275206170     -1.60516642871113
  H           3.45322905473058     -0.94112157911778     -1.61308053725548
  H           1.96311374043853     -0.18895776394304     -2.22919676086218
  H           2.03871820655801     -1.95863242705740     -1.98511960833359
