22
Coordinates from ORCA-job NEB_reactant E -45.823918225890
  C           2.10269791270368     -0.19942127183619      0.24139486951646
  C           1.53544196150484     -1.04656248820933      1.11746966567326
  C           2.35133453233346     -0.41997053502411     -1.12012484003907
  H           2.41971039398680      0.77410938628308      0.58623608951070
  C           1.37661952810973     -0.67984726563617      2.57782603009758
  C           3.58191331815662     -3.34551798239184      0.10917322406206
  C           2.58328921851311     -3.21134730319222     -0.75675125624554
  C           1.17336178852748     -2.90812434363212     -0.33987700236447
  O           1.06469195684659     -2.28351885758962      0.93279396839978
  O           4.88116925406484     -3.58439727415939     -0.14850026156623
  H           3.42778268281623     -3.25835288697301      1.17708466303551
  H           2.72559225895432     -3.29662472837218     -1.82090346176573
  H           0.59184801342791     -3.82980365972102     -0.22251140471523
  H           0.68661818960577     -2.28645352357744     -1.10083040100931
  N           2.58977687139149     -0.50418586844215     -2.24065368753883
  Cl          1.60556693034207      1.03634991795811      2.91528199451740
  Cl         -0.24268054964665     -1.14922431722151      3.14407052899768
  Cl          2.59443631597317     -1.60440200563196      3.50801429541221
  C           5.27058139892478     -3.68396828713410     -1.50118265457086
  H           6.34948726501031     -3.82532618246190     -1.49205111513108
  H           5.02118685487215     -2.77074000644043     -2.04919455993566
  H           4.79257390358129     -4.53967051659450     -1.98706468434066
