22
Coordinates from ORCA-job NEB_product E -45.810539690700
  C           2.91340760182706     -1.41681714477881      0.47473468612715
  C           1.59693663735720     -1.13098514511517      1.16362513758170
  C           2.98082985326516     -0.53735542469049     -0.66896072266314
  H           3.76019633401800     -1.19472182686184      1.13322865088582
  C           1.71658438929067     -0.16735594700721      2.36056175958750
  C           2.99343642891056     -2.93611627540191      0.07237770397725
  C           2.07967376655275     -3.23821301628442     -1.08258068130330
  C           1.21241791698675     -4.23194106266753     -1.07022209454509
  O           0.54654702343087     -1.60151284718791      0.85021407340655
  O           4.33294716111388     -3.32002203732707     -0.10772146423286
  H           2.67431213424543     -3.50937616080371      0.95159999809929
  H           2.17292222381208     -2.58994462414471     -1.94304325252147
  H           1.10358064530975     -4.88035474330569     -0.21684878841603
  H           0.57109175941828     -4.43091233974076     -1.91098048734315
  N           3.03048209098003      0.16268946851708     -1.57106883779850
  Cl          2.62127200370399      1.28883178253120      1.89251709529729
  Cl          0.12324300663546      0.28288232557254      2.96553063261891
  Cl          2.61175279546352     -1.05059916419640      3.62669313363457
  C           4.93679681491048     -2.98936728487566     -1.34147747746830
  H           5.97750741062291     -3.29190388109374     -1.24326280931015
  H           4.88949845364334     -1.91574553004498     -1.54522267390819
  H           4.47776354850180     -3.53625912109278     -2.17009358170587
