20
Coordinates from ORCA-job NEB E -32.844883130090
  C          -0.24152723240032     -1.65190743969411     -1.20085844389708
  C          -0.40727853302489     -1.85763032856697      0.11845043123288
  C           0.61684984328706     -0.52307752199631     -1.73710160419787
  H          -0.29249249026082     -2.56076356730090     -1.79235347955871
  F          -0.99104401030974     -3.00074252136595      0.59073413107710
  C           1.30240903663465      1.48003188358502      2.38219422245138
  C           0.04597067884609      0.99151103986391      2.49387722236299
  C          -0.90408299476713      0.12484486062126      1.71547376845176
  O          -0.29474401223813     -0.98431054728386      1.08136574015948
  Br          1.66918855960419      3.33788311844378      2.49019972940934
  H           2.17871685326287      0.83955724626670      2.36085150879901
  H          -0.52848818484011      1.93705275784683      2.39722325632003
  H          -1.37057004702468      0.76321008975365      0.95792833917717
  H          -1.69203542436183     -0.22390023954592      2.39314830410572
  C          -0.22482414223331      0.40787241825157     -2.60656601679497
  H           1.45057138972748     -0.94876876762324     -2.31054681392530
  H           1.04919279012014      0.01151458321534     -0.88586679654629
  H          -0.96317101587604     -0.19888843058960     -3.13153629663428
  H           0.36148344179379      0.95036989479621     -3.33864793509737
  H          -0.76412450593929      1.10614147132260     -1.97796926689490
