20
Coordinates from ORCA-job NEB_product E -32.942371340850
  C           2.35205147357325      0.90692622776616      0.87942953664884
  C           0.98140339142864      1.50556296584726      0.72893034898302
  C           2.26209534818048     -0.59687575485268      0.58878148132444
  H           3.00115666272889      1.39268625320557      0.13945358912143
  F           1.04598950630321      2.87246486746308      0.72634877591648
  C           2.84859030723283      1.30917778228759      2.28440491813300
  C           2.29309116973422      0.47343332981772      3.38499391292722
  C           1.45131396752636      0.94400052485886      4.28670230762418
  O          -0.06926001524906      0.98341502937106      0.63030510725323
  Br          4.82909973641718      1.25536374208502      2.36439191595752
  H           2.62007775419768      2.36483016284710      2.45440109141367
  H           2.63221859857356     -0.55180993252331      3.42249726632898
  H           1.11273900721756      1.96746723244809      4.27322882739875
  H           1.06024391516002      0.32127183811285      5.07182844616560
  C           3.60791276995466     -1.30931266406000      0.55198894434784
  H           1.77872312833806     -0.70438862006497     -0.38528135547447
  H           1.60454524913736     -1.06519794288970      1.32328126156314
  H           4.29987716068585     -0.79538867427188     -0.11134271848602
  H           3.47137596830147     -2.32284187513809      0.18335388369218
  H           4.06135490055779     -1.37128449230973      1.53680245916097
