20
Coordinates from ORCA-job NEB_reactant E -32.922288056600
  C           2.77411304561610     -0.07965355430440      0.18725736513793
  C           3.48647540177818      0.31943842867565      1.22791056665062
  C           1.46830110433572     -0.79802843097840      0.30560963998801
  H           3.18012044307175      0.07855356666484     -0.79884155993120
  F           4.66373877605744      0.97617170837999      1.03503886327526
  C           1.87095489445426      2.84151354742053      4.17908505229462
  C           2.66582544460283      2.35682770225585      3.24349247321358
  C           3.52024937004961      1.14160791376457      3.44515172220905
  O           3.18729106556937      0.11045202901362      2.52127508359661
  Br          0.79869069005115      4.37326658529980      3.91555095308893
  H           1.77783525203583      2.42230707005772      5.16847065624266
  H           2.71793700958474      2.81185637180696      2.26353240477008
  H           3.35665283149038      0.69973818439885      4.42972635886417
  H           4.57906317781459      1.41404007550949      3.34088265856146
  C           1.59471669461151     -2.25008128649067     -0.15475751987761
  H           0.72605499884889     -0.28955934925775     -0.31505990922506
  H           1.13393340827981     -0.76921043304854      1.34308945772609
  H           1.93040293732148     -2.29452063902973     -1.18824817581844
  H           0.63436741407625     -2.75409386441049     -0.08069606612358
  H           2.31397604035010     -2.77952562572787      0.46502997535681
