21
Coordinates from ORCA-job NEB_product E -37.484581066950
  C           3.08529537578726     -0.91287241642890      0.05866777387226
  C           2.00670250742202     -1.25121243877475      1.08580942184807
  C           2.47674520061342     -0.12521604674370     -1.09983754580162
  H           3.84902799302003     -0.29877677611974      0.54462507826967
  O           2.50379970093350     -1.22086387122651      2.31960664490437
  C           3.71477343202665     -2.24352696469447     -0.37798334054268
  C           2.75346169934540     -3.16378052880693     -1.05113420189569
  C           2.48250156051877     -4.37733146548427     -0.60759830206658
  O           0.87439492465345     -1.54317990523781      0.81625539889658
  Cl          5.07693325545660     -1.91193850717997     -1.51252339481549
  H           4.16985874383090     -2.72732412484145      0.49089141432491
  H           2.29321367039679     -2.78499051325880     -1.95120219846442
  H           2.94094034521268     -4.77365580835399      0.28386850434859
  H           1.78507075276814     -5.02065574643105     -1.11396619367686
  F           2.30647479176535      1.18135977133538     -0.71926327103866
  H           1.48709652380828     -0.51201240682726     -1.36166871233812
  H           3.14277405413269     -0.11770544393641     -1.96762652837215
  C           1.60015673820264     -1.54723779643826      3.37074089617447
  H           2.17277791358456     -1.48780368813953      4.29220486538120
  H           1.20153052011295     -2.55304169071092      3.22610109288013
  H           0.77077029640788     -0.83833363170067      3.38653259811203
