21
Coordinates from ORCA-job NEB_reactant E -37.449004902730
  C           1.69501978690331      0.13256136460597     -0.16840773725157
  C           1.88342568849666     -0.83864756674999      0.73134999854554
  C           1.17303722971355     -0.10437805049816     -1.54330118253907
  H           1.95568488538764      1.13838179898963      0.11202314871593
  O           2.32761369364353     -0.51232225893649      1.96879338781575
  C           4.38379143490216     -4.12957646470573      0.67599942075714
  C           3.87001692701485     -2.98289244863769      0.26492472082441
  C           2.50002645668572     -2.87071741662703     -0.33559274040022
  O           1.59908970388640     -2.15740176587865      0.51565235343195
  Cl          5.94816853927421     -4.25583775547041      1.37454355061602
  H           3.86898733329817     -5.07480215354299      0.59179671801120
  H           4.41777664778189     -2.05638135592194      0.36969016918670
  H           2.04117529128534     -3.85386037692520     -0.45536036145910
  H           2.57683118512838     -2.37803897711984     -1.31042520427556
  F           2.20279184509763     -0.30954698175989     -2.45673884118896
  H           0.62142573749036      0.76499479323414     -1.91077171406568
  H           0.54565095640025     -1.00035366609689     -1.59045881151503
  C           2.32559909708416     -1.52447840748859      2.95925711039490
  H           2.63404972742012     -1.02887467617124      3.87712989499892
  H           3.02992227170333     -2.32462607824053      2.71609958625717
  H           1.32731556140232     -1.95070155605850      3.08209653313957
