26
Coordinates from ORCA-job P E -31.478686072990
  C          -1.44149560782674      0.25029374352734     -2.54172211227749
  C          -0.44275637979396     -1.92489819956521     -1.14619112033797
  C          -1.87489493906178     -1.93592749261424     -1.57299793525408
  C          -2.34794376061985     -0.91184001562723     -2.26436425739363
  C          -0.75684712932661      0.62262836341004     -1.21770085901968
  C          -0.02865271780379     -0.55709797031219     -0.55504999175462
  H          -2.47755020092609     -2.79499418069219     -1.32067396054476
  H          -3.36994051411507     -0.86771833961035     -2.60813841508286
  C          -2.20311290424375      1.42846310868672     -3.15293343004960
  H          -0.24441018764209     -2.72212500919036     -0.42898458978132
  H          -0.66213806821851     -0.06848601403779     -3.24557096172455
  H           0.18960252466007     -2.09183505285874     -2.02529299576001
  H          -1.51566015012273      1.01114029276088     -0.53664132061018
  H          -0.25528989632285     -0.56247043423039      0.52475716772468
  H          -0.01087530117629      1.39874720816871     -1.38377381661666
  O           1.36110594899476     -0.32025178311802     -0.71831333016068
  C          -1.29485112492892      2.55624921420865     -3.62838824242469
  H          -2.91285352601581      1.81674639008146     -2.41828388722473
  H          -2.77811523756596      1.05874310009955     -4.00588320260069
  H          -0.77571395098926      3.02052976805340     -2.79433797461924
  H          -1.87972876283417      3.32304055171587     -4.13178840309656
  H          -0.55258889999798      2.17752204545355     -4.32776478339210
  C           2.19558057093604     -1.14582342974453      0.04928599460566
  H           3.20495443341106     -0.75454380941663     -0.06722731443403
  H           2.17475856675326     -2.18758105588523     -0.29042924423780
  H           1.91503721477704     -1.11548099926306      1.11020898606761
