26
Coordinates from ORCA-job R E -31.394204199660
  C          -0.98226021290324     -0.08615073425938     -2.76804967035453
  C          -0.64487535463438     -3.08216311783697     -2.39710722888328
  C          -1.55799138827545     -2.30745877450300     -1.81819335722646
  C          -1.76309532491020     -0.88866349223194     -2.04699833405517
  C          -1.21494629280329      1.55126551419393      0.79425046739876
  C          -0.39185354218715      0.54612013982943      0.54509451932722
  H          -2.23273565312729     -2.75237139851482     -1.09650059683198
  H          -2.62654355746092     -0.46197914222380     -1.55159233859153
  C          -1.21975451819926      1.37572141796075     -2.93713339770017
  H          -0.56016774030547     -4.12632365462267     -2.15692807733080
  H          -0.10202821514024     -0.47015390209730     -3.26831384366776
  H           0.04663091468124     -2.71133452831478     -3.13495887402987
  H          -2.09827109782482      1.40791025533606      1.38645906850521
  H          -0.57817348687722     -0.45326232199007      0.92497059048550
  H          -1.02433853091455      2.53808806387824      0.41069503388200
  O           0.73554313067374      0.69536400693252     -0.19751596164952
  C          -1.20188011488382      1.77430507839194     -4.41591907529966
  H          -0.42968456098926      1.91550213283079     -2.40688384785686
  H          -2.17351319354268      1.65462113434963     -2.48571943177688
  H          -0.24472930097628      1.52275632440416     -4.87815600236199
  H          -1.36193155835610      2.84474925351301     -4.52144654436628
  H          -1.99011658310639      1.25381129897533     -4.95601958531510
  C           1.51265456919963     -0.46664551057519     -0.36621193448950
  H           1.92091509620474     -0.81450777753387      0.58934710164224
  H           2.33335329100373     -0.18990184149047     -1.02637036105263
  H           0.92831322565491     -1.27467842440148     -0.82466831840094
