16
Coordinates from ORCA-job NEB_product E -26.421920874760
  C           1.01781313620386     -0.14843000154684      1.98761874585493
  C           1.36666975893795      0.85414434918648      0.91182523114287
  F           0.10724676368506     -1.05743187831727      1.52272397581913
  H           1.91958744607794     -0.71759334562543      2.25889656990518
  H           2.17292985463633      1.54271807506950      1.24015446312634
  C           0.46609573888427      0.57540645607649      3.24553837496955
  C          -0.87450584465211      1.17198428555305      2.92129740348978
  C          -1.09505316431582      2.46586496926342      2.79796128834195
  O           0.86082706768241      0.93583632665865     -0.16507693082061
  N           0.31918994285819     -0.40057434376502      4.30957109635663
  H           1.18459800434179      1.38341531090258      3.48535027598330
  H          -1.65949269211978      0.44347038556748      2.78482853573008
  H          -0.31173216978938      3.19555848242593      2.93018394856895
  H          -2.06912433273503      2.85233667238581      2.55494314119325
  H          -0.21598633910709     -0.01538328471728      5.07782517899146
  H           1.21783682941142     -0.71222245911755      4.65825870134721
