24
Coordinates from ORCA-job R E -34.716626421580
  C          -1.22706152404259      0.35418470777714     -2.94221338919632
  C           0.54838953625809     -1.79206268918256     -1.74946120592899
  C          -0.78288007511196     -1.76711784047596     -1.74251908147380
  C          -1.63642247396780     -0.78866951778707     -2.37274898104725
  C          -1.30748010641327      1.16864587259059      0.12530360588179
  C          -0.62292099915292      0.23026020290913      0.76417949939051
  H          -1.31072287028868     -2.55659935693969     -1.22194625231085
  H          -2.69700230409068     -1.00779116207738     -2.36528864879501
  N          -2.07083752710242      1.31367390165897     -3.45463172257802
  H           1.09831265783845     -2.56420959643903     -1.24085027667104
  H          -0.18325378766157      0.62990924238800     -2.95635008401589
  H           1.13380416724895     -1.05330247620628     -2.26929887327332
  H          -2.37835486082876      1.24126941132745      0.20679322169146
  H          -1.10352037772969     -0.50523395890840      1.39303656529855
  H          -0.81492431591169      1.89506652662077     -0.49660454494408
  C           0.84241111993093      0.07825783273440      0.69091927708150
  H          -3.01690489626919      1.01168493708679     -3.63251677974920
  H          -1.69129633402028      1.92265714845860     -4.16074348523581
  O           1.47052899553579     -0.73598822498579      1.32325968955991
  O           1.42171099508319      0.96007739599715     -0.14227339170988
  C           2.83099939738101      0.85582929994651     -0.25733512650250
  H           3.13514271325835      1.60475719401340     -0.98479484495267
  H           3.11160954584949     -0.14467526306860     -0.59377528094678
  H           3.30786332420727      1.04519641256186      0.70698011042768
