26
Coordinates from ORCA-job P E -33.874642128620
  C          -1.67341224691656      0.17277901796611     -2.18108794384010
  C          -0.17831068696540     -1.78790336542972     -0.99279587285079
  C          -1.61587844569479     -2.07858087539989     -1.28680092184888
  C          -2.34170487215564     -1.12889714747461     -1.85426139764638
  C          -0.90414024035469      0.66507902796424     -0.94200144352269
  C          -0.08001639652973     -0.43086793832932     -0.25021491710797
  H          -2.02000706240808     -3.03986815326230     -1.01096151501095
  H          -3.39157632227136     -1.23265371393532     -2.07045738820189
  N          -2.64643397701527      1.17536282189368     -2.58503313735374
  H           0.27379944653880     -2.57884336234983     -0.39515201290181
  H          -0.93291827343980     -0.01367575847410     -2.98766603728116
  H           0.37995735508361     -1.70747376485380     -1.93120413234929
  H          -1.63561913797603      1.07505941247596     -0.24460076379698
  H          -0.45140663200400     -0.58845372092833      0.76626035794872
  H          -0.22992786948216      1.47022750282516     -1.24458003560465
  C           1.39478886168369     -0.07001015339002     -0.17151025234855
  C          -3.09985572694718      1.01761679106955     -3.95147171319711
  H          -2.23870436598968      2.09916511823283     -2.47376584163434
  H          -3.59887420382073      0.05466480720659     -4.05488227688006
  H          -2.28287164366286      1.05860640214481     -4.68953846223150
  H          -3.81640078847066      1.80527203050910     -4.17793014607032
  O           1.90025895805415      0.77388870488114     -0.86773742783313
  C           2.20343865961885     -0.87069580794879      0.82101117097911
  H           1.59492712525398     -1.56549803739900      1.39017203080344
  H           2.69983083550836     -0.18086654466381      1.50121635091520
  H           2.98332765036318     -1.41358329333032      0.28998372886580
