26
Coordinates from ORCA-job TS E -33.791484491530
  C          -0.58848381223477      0.22393588941877     -1.39999476317418
  C           0.75303353521356     -1.85913461651229      0.07507279959111
  C          -0.56257546018056     -1.92377067545129     -0.26166391963109
  C          -1.22510549259029     -0.93372425408360     -1.00274941151044
  C          -0.27101876177865      0.97235838271190      0.64457836297777
  C           0.53477840678813      0.11535422612647      1.34930996279610
  H          -1.17895247502103     -2.68690556204292      0.19619431065800
  H          -2.29662089220905     -1.01442669791007     -1.10380432412212
  N          -1.19160115212425      1.21997802865818     -2.12247434855037
  H           1.17431474207304     -2.60035887977162      0.73455382804269
  H           0.48610152529858      0.22189112288487     -1.50609815414327
  H           1.46432775060338     -1.30522400418643     -0.50824668366950
  H          -1.31657337597693      1.05873704170736      0.88708762539405
  H           0.12651684482514     -0.51683831818137      2.12133916191744
  H           0.19384677157540      1.82350847008203      0.17572009225313
  C           1.98664972837658      0.28200348141494      1.29041866622405
  C          -2.61526274515513      1.44982485085915     -2.05474004613144
  H          -0.63899052083442      2.05746262745491     -2.22430901227161
  H          -2.96601466644666      1.61848260513758     -1.02975960463005
  H          -3.14517615122833      0.58990707894527     -2.46546864071701
  H          -2.86139025307369      2.32136366381415     -2.65691405062336
  O           2.53786964372215      0.94928525926835      0.43472507527122
  C           2.76253756868803     -0.39871267839063      2.39686004188697
  H           2.44673543120022     -1.43207160732242      2.50905998431352
  H           2.56279428712391      0.12151502412749      3.33264206757355
  H           3.82825952336564     -0.35444045875877      2.18866098027485
