21
Coordinates from ORCA-job NEB E -41.179839889800
  C          -0.46062847970214      1.07923722208673     -0.35620043061270
  C          -1.63113764496944      0.98528269816232      0.37277284465084
  C          -0.45588218848352      0.77349365037235     -1.83532790685583
  H           0.21594382616032      1.89441804175567     -0.12745686659160
  Br         -1.58719071912752      2.03698780585053      2.06128263272224
  C           0.50560571065106     -0.60529857678078      0.53169355249779
  C          -0.50716701668305     -1.55009869135823      0.35297706623373
  C          -1.72232244742130     -1.43169027486032      1.02337583594327
  O          -2.46195769013687      0.06633093840584      0.32686796486247
  O           1.64833141264108     -0.76496301164723     -0.14376845433144
  H           0.58220298169051     -0.07824055777099      1.48376188667421
  H          -0.44054744422036     -2.17835241037571     -0.52163156793599
  H          -1.73158783061879     -1.05648624114557      2.03947185773978
  H          -2.50482602500466     -2.13828738478259      0.79605140525703
  F           0.81204431152441      0.81474779735623     -2.31419573585877
  F          -0.95195534108138     -0.43459673579478     -2.16299312041493
  H          -1.03522809165994      1.52724126074852     -2.40024831714447
  C           2.71629418605526      0.10400993457604      0.16807743303136
  H           2.56724200364129      1.08416380982556     -0.29358769799407
  H           3.61149658142454     -0.35100218659411     -0.25036743114039
  H           2.83126990532049      0.22310291197053      1.24944504926743
