21
Coordinates from ORCA-job NEB_reactant E -41.212589698130
  C           1.85849449898299      0.10622239459047      0.26109921450573
  C           1.39848944401069     -0.54434672447324      1.32472903597107
  C           2.24888921038543     -0.62573804285367     -0.98393944732862
  H           2.01055450048593      1.17204942015396      0.26645762103661
  Br          1.03774153200773      0.45865060849816      2.92649521117209
  C           3.98402705405213     -1.93713900338431      3.03709552720911
  C           3.18416788955858     -2.64597910464593      2.24338481188407
  C           1.69984416322558     -2.63087663284726      2.39782318675716
  O           1.09589307887394     -1.83243800283927      1.35730203524852
  O           5.31518720537685     -1.79581293545353      2.96687698726933
  H           3.59747419530604     -1.38900831176667      3.88825596058126
  H           3.55828400846133     -3.18388000293196      1.38704668185836
  H           1.40385653392157     -2.23556972196273      3.37594000436871
  H           1.26013173527083     -3.61860240953302      2.25105215806044
  F           2.11257676399834      0.16095478526200     -2.07250637043697
  F           3.57031672026114     -0.97344275398249     -0.93938465668015
  H           1.67517691840133     -1.54991597349015     -1.14704487269388
  C           5.98532707375960     -2.39377025987320      1.87705400567298
  H           7.03259388172330     -2.11842495065873      1.98198151498900
  H           5.59921693879078     -2.01849238364319      0.92479097458004
  H           5.88795665314589     -3.48293999416523      1.90559041597515
