16
Coordinates from ORCA-job NEB_product E -25.809426842620
  C           2.94858492912521     -1.88344261520439      0.69851411670488
  C           1.63818102326661     -1.25529296291882      0.40472264736308
  H           3.73248880306187     -1.14551257298090      0.51037390067192
  H           2.99065497003632     -2.20036457001030      1.74189221310754
  Br          0.13107028008284     -2.42583710697346      0.90534734201436
  C           3.18940630399061     -3.13093879131544     -0.18677944323251
  C           3.05671260187106     -2.75669605120812     -1.64047691413215
  C           2.15278183679276     -3.26663310966051     -2.45499559639182
  O           1.39164760717015     -0.20679900972766     -0.07592406925868
  N           4.49395014950636     -3.66988146230118      0.16278391627916
  H           2.44464500208537     -3.89279505901173      0.06712235122442
  H           3.78112261374602     -2.03408128361951     -1.99653150020443
  H           1.42443435109227     -3.98445734286700     -2.11394129222859
  H           2.09512609018457     -2.98376012323410     -3.49212397882994
  H           5.23334553561811     -3.05558637785890     -0.16354302814782
  H           4.62854790236987     -4.57652156110796     -0.26854066493942
