23
Coordinates from ORCA-job NEB_product E -64.319227153400
  C           0.97486159642624     -1.73957273880272      0.72317976525096
  C           2.19142578516002     -2.66987004551894      0.76366756149838
  C           1.18296317630864     -0.22726399165261      0.65171201038360
  H           0.52642188294933     -2.01063468464212     -0.24702816635895
  C           3.54694484071033     -2.31740717893459      1.44966703139777
  C          -0.08639909026850     -2.14706670101625      1.79060366231622
  C          -1.10323974451500     -3.08559503743798      1.19001681553235
  C          -2.38090180250165     -2.78175275231487      1.07351046359187
  O           2.12713403127406     -3.74071451922286      0.23655160076083
  C           0.50484171985532     -2.81450488616995      3.03544720501249
  H          -0.59694731993049     -1.24633634677315      2.15289133226517
  H          -0.70643130487603     -4.03365598068389      0.85500052087449
  H          -2.77943429091908     -1.83739598787386      1.40548375161954
  H          -3.07967750233980     -3.47221061282323      0.63672208531365
  Br         -0.44751828449956      0.52344759393651     -0.16385226453110
  Br          1.40266365275983      0.71530283327083      2.34038205820079
  Br          2.66564403404934      0.18481718942191     -0.55670844481949
  F           3.61542433393206     -1.12637544194749      2.03906224423666
  F           3.83153867891599     -3.23837238984063      2.36673945184324
  F           4.51128228657538     -2.35276972080007      0.52426936223740
  F           0.93301602790800     -4.06020986245539      2.80879456694557
  F           1.54714211766002     -2.14035317307758      3.54184900674485
  F          -0.41545482463447     -2.88690556464106      3.99983837968373
