23
Coordinates from ORCA-job NEB_reactant E -64.330511299800
  C           1.32598259845098     -0.53326336019441     -0.13721868449712
  C           1.91389745057702     -1.59911718282074      0.42082564837970
  C           1.89162712621371      0.46757435488485     -1.07143320710392
  H           0.27920998437821     -0.37509357789625      0.08222995100457
  C           3.36568731986397     -2.03545776373618      0.24187134310021
  C          -1.22009826853910     -3.32442467360778      3.56414646744117
  C          -0.36998406982172     -3.42807064955158      2.55733756479436
  C          -0.02511403209224     -2.30092217541438      1.63743750104132
  O           1.33260326248244     -2.46516835495540      1.26370260201039
  C          -1.57716417234578     -4.48244919933284      4.44572959552166
  H          -1.73310750554828     -2.41022153423466      3.82304278114902
  H           0.13005106137532     -4.36123661126381      2.33723421501180
  H          -0.17616308518286     -1.33027504714598      2.12529142682773
  H          -0.66550700046636     -2.35841588114326      0.74426973425915
  Br          0.67067628675133      1.99545209833941     -1.16251642488355
  Br          3.63522292130887      1.18420021441321     -0.54943833396682
  Br          2.01582694591782     -0.26118049976780     -2.91395353404937
  F           4.16958298555101     -1.43466405195616      1.12738454585561
  F           3.48676761625340     -3.34796959389187      0.43093662719339
  F           3.84796498330449     -1.77689251251325     -0.97477179466040
  F          -1.30677444860341     -4.22506687844904      5.73463089334013
  F          -2.89136654114662     -4.75888962355998      4.38361150966742
  F          -0.93172141868223     -5.60974749620209      4.13034957256354
