20
Coordinates from ORCA-job NEB_product E -29.481885938110
  C           3.23950506963010      1.04106040676105      1.71025313777660
  C           1.80478870587741      1.54123115994062      1.90871725627724
  O           3.39349046974914      0.53364990042364      0.40324380323236
  H           3.90580973524934      1.90487742094992      1.86538130830917
  N           0.96837064801864      1.21970523239829      0.91022847851320
  C           3.53131988816577     -0.00344731159696      2.81521568899376
  C           2.61134114839077     -1.17715956472561      2.65244408049813
  C           1.66992263286689     -1.50543701295719      3.51548268147790
  O           1.47755301545738      2.15360644581955      2.90083904492150
  C           4.99359394590625     -0.45282824011994      2.78481604303082
  H           3.32349357679171      0.49316268851129      3.76690394538798
  H           2.75542537303555     -1.75411105071454      1.74764256178954
  H           1.50670158506454     -0.93606554711838      4.41524102478640
  H           1.02103342152506     -2.35051386187793      3.35876253154016
  H           4.29022959945604      0.19102552901114      0.32234513007142
  H           0.00564266849881      1.50624937125645      0.95302170800331
  H           1.32289819061227      0.73081586210513      0.10665710931053
  H           5.66139322964862      0.40470823509578      2.84263346734493
  H           5.21608514640601     -1.01443190988007      1.87792032949038
  H           5.19360194964967     -1.10259775328221      3.63315066924466
