24
Coordinates from ORCA-job NEB E -43.011064845960
  C           0.27448071908058     -0.72915439894584      0.65404331060619
  C          -1.07319703804696     -1.10725800206159      0.25493910220646
  O           0.53647483045213     -0.82230236884948      2.03518205590491
  H           1.04649183180034     -1.25735262409048      0.08500115157045
  C          -1.40121896424652     -1.85942246997748     -0.91542387979906
  C           0.39742450409548      0.88764756036665      0.34824362073295
  C          -0.88680270334823      1.53240553418455      0.55460534952707
  C          -1.75485840438870      0.83745375174375      1.50312446057079
  O          -2.07504825555530     -0.37630450648977      0.74809905370570
  C           1.05250920364807      1.21494611113686     -0.99248752305745
  H           1.07838800779272      1.12670833793960      1.17433757089008
  H          -1.36832820583893      1.99436147428389     -0.29694560547199
  H          -2.72150761370809      1.30163823510065      1.68311164552235
  H          -1.26119284092232      0.56031550497247      2.43722117099562
  H           0.48318640885204     -1.74420477708449      2.31384255260594
  Br         -1.93959818296472     -3.89821179373254     -0.20101093379760
  Br         -2.98951758602269     -1.24534346096743     -1.80908484193589
  Br         -0.00092162278017     -2.21404516182180     -2.18024178583049
  C           2.50420117511881      0.76283914540220     -1.09442187399627
  H           1.01284675094023      2.29915652348765     -1.11713731218996
  H           0.47351187102793      0.77256330517047     -1.80571201071658
  H           3.07517241374409      1.11563226105519     -0.23852763308641
  H           2.95334849164483      1.16777477330960     -1.99706020947576
  H           2.58415520962537     -0.31984295413263     -1.14369743548105
