24
Coordinates from ORCA-job NEB_reactant E -43.051207550520
  C           1.37463637376990      0.06576480823947     -0.03072769912353
  C           1.45977800463572      0.44379846973019     -1.31026200483244
  O           1.61417911414432      0.89299234368200      1.02951782927561
  H           1.09565291488078     -0.95095454064079      0.20369782155290
  C           1.17957330316749     -0.46791487823064     -2.45231145213427
  C           4.06940550963617      4.20507511993543     -2.04113141279856
  C           2.83229987103140      3.75392454432649     -1.92506895304049
  C           2.43039511291277      2.62910114155575     -1.02475677580394
  O           1.80611433123194      1.64586595734579     -1.84555003874697
  C           4.48669493056010      5.31899181886329     -2.94456870803314
  H           4.86529071112681      3.75636006405240     -1.45955226739530
  H           2.02699109996897      4.17742707416140     -2.50852737660244
  H           1.71892444261029      2.97585656821212     -0.26552428840024
  H           3.30250101885026      2.19563167145548     -0.52369296865690
  H           1.52767671623318      0.40215174486237      1.85229490494821
  Br          0.51572972223603     -2.21515259107429     -1.99371191741209
  Br         -0.12862309411216      0.37841411556611     -3.63318944221156
  Br          2.83514762378627     -0.70136613195003     -3.48936827533843
  C           5.52966488322266      4.83841541997603     -3.95364182613352
  H           4.91795257872769      6.12393633556479     -2.34240598534774
  H           3.61752876172458      5.71561558622976     -3.47131489214544
  H           6.41110157048717      4.45888120933009     -3.44170098986005
  H           5.83290100833655      5.65551841502424     -4.60355449130417
  H           5.11918349083112      4.04056573378257     -4.56784879045549
