24
Coordinates from ORCA-job NEB_product E -43.048330152690
  C           2.95177836616744      1.75393965190212     -1.47433867011241
  C           1.63581846589716      1.43365491500258     -2.16895519851196
  O           2.82756555792829      1.42306955407555     -0.11331197715496
  H           3.77627632635711      1.18899149902712     -1.93469204742843
  C           1.66471810516644      0.24802151492060     -3.14207623147080
  C           3.27617861743386      3.26875497092620     -1.54516718915671
  C           2.11060222848674      4.08698573208331     -1.06512579651253
  C           1.93984032138290      4.44017847071820      0.19451385554465
  O           0.58996152909808      1.96792797040393     -1.95265382196448
  C           3.72182161882783      3.71339880773723     -2.94217918324496
  H           4.10360395054829      3.39892412875162     -0.83989975127444
  H           1.39619767126045      4.38081128417553     -1.82169852632382
  H           1.09000392566188      5.02031452034603      0.50958416071753
  H           2.63657927492665      4.14681675842792      0.96158442486941
  H           2.76315635233722      0.46703179083325      0.00510150235517
  Br          2.19176866946156     -1.33281335757070     -2.11195639086606
  Br         -0.09882103411290     -0.03194401181507     -3.89045988078879
  Br          2.94140608214630      0.51671103646973     -4.57673423313682
  C           5.13143430232037      3.26122456616186     -3.30518635045969
  H           3.69393545785906      4.80485402253013     -2.96174196188502
  H           3.01030370861889      3.35967406523480     -3.69247556355630
  H           5.84516608637168      3.63083026800254     -2.57280381674491
  H           5.40601119561718      3.65342466886873     -4.28078566168743
  H           5.21389322023753      2.17851717278680     -3.34934169120624
