17
Coordinates from ORCA-job NEB E -36.825024195800
  C           0.69644963759879     -0.55906458162201     -0.57905088082751
  C          -0.79277561291795     -0.45484225007924     -0.43410360620504
  O           1.23229745603145     -1.81449775320540     -0.61151254865356
  H           0.96065039766651     -0.03195851256588     -1.51780502023468
  N          -1.66793705597867     -1.24521406611608     -1.13247561245199
  C           1.41794802861780      0.21592538072006      0.59103491644747
  C           0.76962256574507      1.58505368980101      0.73885702241927
  C          -0.67600313470768      1.59591732390567      0.82157543424054
  O          -1.38755129501523      0.57275181628405      0.17532720652385
  Br          1.16740115313621     -0.97099732970243      2.16235755088486
  H           2.45085295528599      0.29282254994178      0.27685835736886
  H           1.32487644922905      2.32424431445571      1.27701745912001
  H          -1.05996867190223      2.54744895843673      0.40738304545804
  H          -1.03744020615533      1.55650519316893      1.85731057830885
  H           0.64192788490194     -2.43801751936588     -1.10756383918606
  O          -2.85409613012564     -0.98492916711746     -1.11749267809443
  O          -1.18625442141007     -2.19114804693954     -1.80771738511847
