17
Coordinates from ORCA-job NEB_product E -36.867523612230
  C           2.90063293156180      0.70688251429425     -0.25187187056285
  C           1.46776635129330      0.88754164276425     -0.68886866602643
  O           2.89690353379703     -0.19161349979989      0.80951495266560
  H           3.48548072023357      0.32710781689997     -1.10767590340432
  N           1.34836802668495      1.53691723259313     -2.09376969974292
  C           3.44403279363370      2.10765342555807      0.13090222950840
  C           2.60930666951214      2.76578089598880      1.17156804331571
  C           2.16336194898067      4.00375306030925      1.05962744626763
  O           0.46467262586041      0.63637845463132     -0.12343840605827
  Br          5.28435809341705      1.83946445551737      0.82814993657524
  H           3.56616273676723      2.72520146875028     -0.76022690828177
  H           2.38417942869047      2.15663900845229      2.03615960881010
  H           2.39011955346106      4.61734657576573      0.20241906996674
  H           1.55328242679295      4.45185844942958      1.82338219834446
  H           3.78794537422351     -0.24884798139641      1.18573460075199
  O           0.23399368858379      1.64976421799396     -2.51707363078816
  O           2.37643309650635      1.88487226224805     -2.62673300134114
