17
Coordinates from ORCA-job NEB_reactant E -36.875155217570
  C           1.64318348483422      0.13982244926487     -0.04117466819522
  C           1.41825393976285      1.20267815502867     -0.83410650608628
  O           1.88703378670452      0.20343367704433      1.28755219086612
  H           1.63222804875410     -0.83121235199934     -0.51969052653265
  N           1.16413398623940      0.94361399544335     -2.23707872104579
  C           4.23894395187463      4.00515546574372      0.45479925879648
  C           3.45596142881891      2.94590131835898      0.54652756565779
  C           1.96000917257024      3.04161293531076      0.59612276724792
  O           1.35352400502951      2.52644700689274     -0.58053322124544
  Br          6.12037869655246      3.87699169327438      0.40407939043564
  H           3.87847771780205      5.02098056438003      0.41966545040218
  H           3.87381596497173      1.94968702723154      0.57040870594634
  H           1.63860532971387      4.08460109534819      0.62649988146464
  H           1.58599356389876      2.51345254516833      1.48010201977665
  H           2.06790821137218     -0.67462506645395      1.64133789275915
  O           1.02898855057821      1.89979745956216     -2.95918076449138
  O           1.10386016052239     -0.21793796959876     -2.59163071575618
