17
Coordinates from ORCA-job NEB_reactant E -33.747737631760
  C           1.61463429036980      0.05176811507287     -0.02630129674727
  C           1.47071641343736      1.07785342480429     -0.88541622327982
  C           1.68757205614399      0.11762143429236      1.37000386870286
  H           1.68625763611010     -0.94252273751550     -0.45097498798359
  N           1.42399755124482      0.74560768521340     -2.32789756695545
  C           3.40895727409188      4.30288428952178      1.25654516796304
  C           2.84454183953945      3.13789356614804      1.00495622995348
  C           1.42137961387305      2.99221937626509      0.55161120065870
  O           1.33070511115803      2.38146379704439     -0.73490291742639
  H           4.42911597101523      4.37471594579871      1.59045495792976
  H           2.87096475508019      5.23016288962956      1.15035695286555
  H           3.39748755301528      2.21581528204374      1.11760658301573
  H           0.96050811153057      3.97295390933068      0.41647048455147
  H           0.84327318871705      2.41209504386306      1.28056140478794
  N           1.75776430101952      0.11981259964051      2.51616956668247
  O           1.29731628356887      1.66657173441173     -3.09026747143744
  O           1.51680805008481     -0.42181635556473     -2.62727595328104
