17
Coordinates from ORCA-job NEB_product E -33.749410766200
  C           2.65430173529994      0.89113423714604      0.08155854948837
  C           1.39450260100079      0.98094257578583     -0.72044137384556
  C           2.50502477439182     -0.03660238197821      1.18129770049970
  H           3.47654835391167      0.56031262506775     -0.56508443668131
  N           1.66281362568103      1.55824277255441     -2.14415995782121
  C           2.99323451210360      2.31470209230022      0.61843302293039
  C           1.84206781209486      2.89822734244776      1.37905411488497
  C           1.20197630606189      3.99222829877471      1.01346487643805
  O           0.27231194256448      0.74450195398187     -0.44322538445008
  H           3.86242757161351      2.21790526347044      1.27383580915693
  H           3.26487883340313      2.95294815702582     -0.22417470706222
  H           1.54640589777303      2.34979144214894      2.26326468668506
  H           1.48101141130732      4.54959864497583      0.13334062217245
  H           0.37889364047919      4.38472754837091      1.58349080559583
  N           2.42410788219599     -0.75710065888533      2.06237248708120
  O           0.68353839257915      1.83223389558856     -2.77763845416873
  O           2.81695470753858      1.68450619122445     -2.47818836090383
