17
Coordinates from ORCA-job NEB_reactant E -26.168807334420
  C           2.40838181706011      0.97854029423331      0.41757371726416
  C           1.42625037334147      1.76538252781897      0.82991483590079
  H           3.05270914169507      0.44106294592020      1.08712754972410
  H           2.59983865769977      0.87404289354849     -0.63328911541643
  C           0.53562328457138      2.54816394791663     -0.10408920239689
  C           3.62164008367406      2.86206381145941      3.00206806913421
  C           3.05203649219153      1.77789722983076      3.49065423653478
  C           1.66797180991653      1.29969161110738      3.15248031884367
  O           1.02588147472277      2.00555027281282      2.11300023151415
  H           4.61482157560339      3.15954187624644      3.28942875433384
  H           3.11700095029084      3.49372774675029      2.29073415166622
  H           3.56269741125566      1.15010340605964      4.20862172806019
  H           1.01887904661166      1.44105306021405      4.02502058355483
  H           1.69348958226230      0.22496705685545      2.92116874865996
  F           0.92735182219236      2.42673788056379     -1.40777082401599
  H           0.56441151910050      3.61373473481826      0.15025464449235
  H          -0.49778504218941      2.18833870384410     -0.03859842785394
