28
Coordinates from ORCA-job NEB E -39.542452644550
  C          -0.12072339953989     -0.85593183962693     -0.37277478443301
  C          -1.22050749329083     -0.17313760028678     -0.86002617093374
  C          -0.29294666824885     -1.84093267002842      0.75947973779140
  H           0.62667172988097     -1.11374945328589     -1.11155139388167
  O          -1.10763380397299      0.28946457034069     -2.14260032265661
  C           0.73089641012462      0.91402452384137      0.62046489669212
  C          -0.30637099736775      1.83414644210508      0.63287368028799
  C          -1.57259334608134      1.43740971600366      1.08293282708834
  O          -2.15735064496953      0.27375622064161     -0.11460416529804
  O           1.84934188429505      1.25121155040733     -0.06571812478984
  H           0.87334770273964      0.26248139144973      1.47435097055271
  H          -0.24388985448344      2.62752466701344     -0.10010040218027
  H          -2.38213741185662      2.15044341483012      1.03542149905499
  H          -1.62384624701534      0.77646101722457      1.93761636857139
  C           1.00752554359742     -2.49147410064881      1.21785678071942
  H          -0.95814109724348     -2.63576773909764      0.40442411481704
  H          -0.79760933569798     -1.36608398729348      1.60257054522482
  H           1.52168594152120     -2.94674123246990      0.37397903112426
  H           0.79509302458514     -3.27086455778683      1.94641833527754
  H           1.67963888640125     -1.77420229669222      1.68267336473221
  C          -2.10608233434527      1.19136245573263     -2.57521994907851
  H          -1.94916840969517      1.32091146341606     -3.64379212209409
  H          -2.01375307440005      2.15381238595889     -2.06581329478749
  H          -3.10339781529219      0.78613326023145     -2.38540163690476
  C           2.98728454991950      0.44847945408312      0.13558892494361
  H           3.80094330972472      0.92945503067452     -0.40450925696601
  H           2.83572121144830     -0.55954682360294     -0.26198403178295
  H           3.24800173926292      0.38135473686558      1.19744457890918
