28
Coordinates from ORCA-job NEB_product E -39.604541095060
  C           2.95515434017464      1.29444622636335     -0.01981084294479
  C           2.05872736919396      2.16096005753920     -0.88663218841020
  C           2.09652006836739      0.43020937183076      0.90924468582979
  H           3.54753015434551      0.66635671405749     -0.69036400343972
  O           2.33926060651082      1.99335341908115     -2.17920432771677
  C           3.92460466756657      2.22979361085576      0.73655296114420
  C           3.22075117915157      3.02081029718680      1.80397391938916
  C           3.58848486124529      3.03239485779570      3.07132328941975
  O           1.19214302824934      2.89145048222280     -0.48301980435107
  O           4.49174981112905      3.07919726017544     -0.25353831320465
  H           4.72949356428770      1.62823263693877      1.19204693537557
  H           2.38894959528469      3.61299006735020      1.45112859594567
  H           3.06873186163743      3.61840914540768      3.81010266257431
  H           4.42394791711265      2.45017265535837      3.42894313164578
  C           2.91969161165449     -0.53201522917692      1.75593356143012
  H           1.40170714424532     -0.14263658532931      0.29054268518351
  H           1.50753963273895      1.08359797441113      1.55451254762740
  H           3.56549021746859     -1.14009879049551      1.12639498853573
  H           2.25996635530949     -1.19419160423991      2.31125787451752
  H           3.53545271829532      0.00834370210969      2.46905969547359
  C           1.59793334323260      2.79239630837640     -3.09077037981035
  H           1.92050733327447      2.49948923540395     -4.08643435531314
  H           1.80469240886135      3.84984931706725     -2.91644233482073
  H           0.52730215446655      2.61710772505379     -2.96468203972429
  C           5.56568699750900      3.85384544105739      0.21304694296458
  H           5.92609531976276      4.42318700991237     -0.64135204141267
  H           6.37406342533047      3.21707176419968      0.59527468806150
  H           5.25482231359402      4.54167692948648      1.00751146603022
