28
Coordinates from ORCA-job NEB_reactant E -39.571939312240
  C           2.34940920502537      0.20331606343024     -0.15052171237157
  C           2.02376655331143      1.46836958260970     -0.40860330558356
  C           1.97252244443591     -0.54952237713908      1.08659751600875
  H           2.93806218270189     -0.31934707901906     -0.88784704707861
  O           2.45799154883993      2.03931094363860     -1.57600993629947
  C           4.17700859715899      3.50816228036343      0.69057337581210
  C           2.95412408576661      3.86955828693793      1.06676182059057
  C           1.93716872256564      2.86231486942711      1.50722841074070
  O           1.24855783936455      2.24710578894239      0.40695480181553
  O           5.08517954681911      4.39351676643318      0.22886148425169
  H           4.49495198228459      2.46979487456709      0.74364347950015
  H           2.64938712170233      4.90107388783242      0.98802483960693
  H           1.14225040963722      3.33632774123560      2.08496294358743
  H           2.41254267487799      2.08201578926748      2.11290994927889
  C           3.19744440297831     -0.89635015411236      1.93532190357651
  H           1.47823220766594     -1.47980689791143      0.79316078470015
  H           1.26212859860891      0.03510485146487      1.67236166003137
  H           3.90099605212272     -1.49101665386938      1.35700960159193
  H           2.90258834341377     -1.46665517222622      2.81327857495657
  H           3.70649494244482      0.00666832026261      2.26713665528034
  C           1.78068975654633      3.20142477981734     -2.01102635847665
  H           2.14897206939316      3.39422389365000     -3.01685907544873
  H           2.00407019335741      4.05609882411485     -1.36672088304284
  H           0.69992454129139      3.04075031336728     -2.03403543089080
  C           6.34198828698597      3.89894841502903     -0.17246823701288
  H           6.50145212556583      4.15620227722974     -1.22243537566632
  H           6.40859617094343      2.81451603056936     -0.05769106315158
  H           7.11869939419046      4.37379375408728      0.43283062369341
