28
Coordinates from ORCA-job P E -34.165922442660
  C          -1.35376164178617      0.23801725102485     -2.29897124931791
  C          -0.04856058939128     -1.80158072404679     -1.00292684732694
  C          -1.52745570559021     -1.91953227010339     -1.19544320782039
  C          -2.15735906126740     -0.93280473151486     -1.81383165316404
  C          -0.45737034248965      0.72483541784734     -1.14011615378028
  C           0.24112948931381     -0.42603711898375     -0.40623479049691
  H          -2.03448457605848     -2.79217622147956     -0.81578238880201
  H          -3.22229815672162     -0.95750354528466     -1.97346054366745
  C          -2.19923441051515      1.36328402777377     -2.94261393288220
  H           0.34193115246150     -2.58525967668482     -0.35292996875234
  H          -0.67935344674082     -0.13417935755187     -3.08411798015347
  H           0.45467111243062     -1.88370353916272     -1.97255002519420
  H          -1.07233073400536      1.26836847277175     -0.42155408797454
  H          -0.03490726571628     -0.42725184444414      0.64979502450555
  H           0.28197544120272      1.41968125134718     -1.53570819719609
  Br          2.20510476515796     -0.15585387171748     -0.37485744350244
  C          -3.26280295042832      1.90825988105745     -1.98596654031405
  C          -1.29395412922810      2.51906726465786     -3.38507839603857
  C          -2.88552595762228      0.79851138430341     -4.19266389313218
  H          -2.80842576909110      2.38935063256295     -1.12335845698050
  H          -3.92115004586313      1.12017379463508     -1.63081433943517
  H          -3.87031840764944      2.65097115360346     -2.49830520764266
  H          -0.89544406777250      3.06191837180664     -2.53216389191734
  H          -1.86254531616900      3.22265673740252     -3.98916055754971
  H          -0.46354349682063      2.15308824860146     -3.98530189693964
  H          -3.54764533490162     -0.02715794806134     -3.94741324891999
  H          -2.14518834549653      0.43990501578610     -4.90479101619667
  H          -3.47700220924151      1.57179194385356     -4.67764910940787
