28
Coordinates from ORCA-job R E -34.076082291980
  C          -1.63459146913976      0.01478726542943     -2.74209095377752
  C          -0.27860453632735     -2.45198428951805     -1.62663212948846
  C          -1.34749513227760     -1.84138227933450     -1.12507234065335
  C          -1.99082900384460     -0.64426955223513     -1.64100194636321
  C          -0.30211723269515      1.05400893655094      0.62068311633200
  C           0.71784078514801      0.33047201324781      0.21130362371463
  H          -1.80885848003991     -2.25223027457513     -0.23424356836408
  H          -2.82608166530461     -0.29538641826934     -1.04937067031010
  C          -2.27382372266360      1.24892232427905     -3.31494589313451
  H           0.12746938692241     -3.33829653722513     -1.16916253147457
  H          -0.80053985535081     -0.34694699819384     -3.32827645157177
  H           0.23290187145899     -2.09769280130992     -2.50477000353512
  H          -0.80835420271321      0.81782525465406      1.54072984003214
  H           1.11404232741859     -0.52196591488425      0.73823997195597
  H          -0.67153814551725      1.89567952129405      0.06092979856397
  Br          1.64617810919549      0.69206729703504     -1.38999542834157
  C          -3.43279655891590      1.77548360892569     -2.46853739518737
  C          -1.19740089181437      2.33638141739862     -3.43545105794848
  C          -2.79104038155933      0.89883068881608     -4.71772502327758
  H          -3.09700325557372      2.03355687881583     -1.46654338696806
  H          -4.22501076677140      1.03424944481239     -2.39285203303783
  H          -3.84784398002124      2.67027053048784     -2.92777041385476
  H          -0.82766393115242      2.62009314102985     -2.45302263707332
  H          -1.60685695898761      3.22163804344870     -3.91728970809724
  H          -0.35374870047633      1.98114502710624     -4.02210627641365
  H          -3.54151310503243      0.11317254819152     -4.65985942712666
  H          -1.97739977859299      0.55087920659669     -5.34992623376499
  H          -3.23984072537189      1.77323191742545     -5.18409084083450
