17
Coordinates from ORCA-job NEB_product E -26.722467867440
  C           1.11770224155048     -1.39590673339592     -0.21360451192685
  C           2.38412260624056     -1.32867161302433      0.64350800997842
  N           1.34780012719497     -1.00487460932850     -1.58166602925470
  H           0.36301351300095     -0.73087608152113      0.22550480243629
  C           2.11667772566429     -1.51566062778741      2.05680867314338
  C           0.58529860022242     -2.84637651236489     -0.15333014195211
  C          -0.75452825470954     -2.93450261420964     -0.81357129353793
  C          -1.84294474895523     -3.37760878662918     -0.21483661438306
  O           3.48560216150093     -1.15038047325805      0.18860984691832
  H           1.29517512232076     -3.49211277811985     -0.67867456427386
  H           0.51704724765742     -3.17318126646662      0.88641893454611
  H          -0.77681331239062     -2.58716708064356     -1.83625817678261
  H          -1.83127022463660     -3.71913789354165      0.80772003216825
  H          -2.79018423003109     -3.42839137905932     -0.72320912822385
  H           1.58578105897001     -0.02154813964426     -1.64654305740755
  H           2.12220034822721     -1.53454684456150     -1.97099579518499
  N           1.84292001817308     -1.63225656644418      3.16291901373675
