17
Coordinates from ORCA-job NEB_reactant E -26.728781463790
  C           1.74961442544153      0.08711216348681     -0.00432675208205
  C           1.12987810454378     -1.01571681513380      0.47522224259766
  N           2.09458549838777      0.24558004830401     -1.31756160861982
  H           2.05355874675830      0.86450844544848      0.67924789161964
  C           0.88660769959072     -1.14059483164045      1.85178395981521
  C          -0.05750891708846     -5.38625945452688     -0.89932762090401
  C          -0.26390096771834     -4.08405419613524     -0.91793797238075
  C           0.14080306873665     -3.15203832178848      0.18043328343002
  O           0.72711390277491     -2.00705636857489     -0.40735837932813
  H          -0.38358760972185     -6.02332113653160     -1.70304082390213
  H           0.43526306409515     -5.87031470127843     -0.07231441258842
  H          -0.75435574825290     -3.60377179985462     -1.75314189072209
  H           0.84700051115151     -3.63914959011854      0.86692296550162
  H          -0.74983750531589     -2.85964405789935      0.76175703162476
  H           1.67257404786140     -0.41553654511718     -1.95109622035873
  H           2.21121810979417      1.18161420309961     -1.66575381255284
  N           0.67737356896153     -1.23905704173946      2.97909211885006
