25
Coordinates from ORCA-job NEB_product E -40.655172693180
  C           2.98593690925132      0.48996786820514     -1.11047521540541
  C           2.06538163722307     -0.73449070533527     -1.11437017494650
  O           2.39274198730277      1.59980304462843     -0.50294145777731
  H           3.91584025878987      0.20355551571763     -0.58407583795444
  O           2.71861755220934     -1.80713288333373     -1.57983682833666
  C           3.32156496942850      0.82885798179314     -2.58146320551948
  C           2.06019579876199      1.18550742941644     -3.31453131817555
  C           1.59560090206022      0.50889910540621     -4.34643195981178
  O           0.92011665514723     -0.75315871589604     -0.75987601633635
  C           4.35206694296206      1.95870166219809     -2.68368040389974
  H           3.77992853049371     -0.06088107534197     -3.02554758144537
  H           1.54389569671254      2.04745136740283     -2.91994768447311
  H           2.10706379485079     -0.35667127639627     -4.73834295072950
  H           0.68375521173961      0.78969293948381     -4.84408499936593
  C           2.25713018933860      1.50292442845716      0.89371511921014
  H           3.22815766172024      1.31835222151467      1.37199663614110
  H           1.55861034593781      0.71115768956204      1.17880110518425
  H           1.86871792561160      2.46458726310293      1.22137132450729
  C           1.95403751451446     -3.00433183588816     -1.67771324665408
  H           1.09384719706834     -2.84778564283305     -2.33095879366384
  H           1.59690709796435     -3.30700582364414     -0.69170735879765
  H           2.62064083571668     -3.75633229813614     -2.09115321091789
  F           3.85065350189942      3.16616540874847     -2.28802860659743
  H           4.66538593088719      2.07975482812018     -3.72707970194765
  H           5.22370495240827      1.75461150304757     -2.05133763228711
