24
Coordinates from ORCA-job NEB_product E -44.468399251240
  C           2.76187828801671     -0.01924961307528      0.92541544482145
  C           2.15412598829268      1.36567782021522      1.13369001666206
  O           1.69852893248151     -0.92262863079493      0.78369152293148
  H           3.31795201422580     -0.06252071775799     -0.01317427926236
  C           2.34916238356790      2.37308038312540     -0.01547423547423
  C           3.68329516993643     -0.41540527059299      2.11233625785215
  C           2.90760902638869     -0.36140091551335      3.39731661220455
  C           2.25158311937476     -1.39363667628278      3.89886768874559
  O           1.45541963311095      1.64734582644668      2.06330506936326
  C           4.94601982037938      0.44907519782573      2.19385612988065
  H           3.97009910388219     -1.45495807999028      1.91698093694959
  H           2.88901702220041      0.59575856211387      3.89845963871006
  H           1.69203614370979     -1.31952533273484      4.81545200225352
  H           2.26169300397537     -2.36223965269626      3.42348203072365
  H           1.24773202665946     -0.99988801123046      1.63790868629455
  Cl          4.04194057323697      2.53090910586417     -0.49472061067731
  Cl          1.40697433129521      1.70758740050908     -1.37579676897765
  Cl          1.71749054791108      3.96381586314214      0.42722660967452
  C           5.98419610124045      0.09016123930509      1.13772443503096
  H           5.38955370667266      0.30024871586929      3.18103542653339
  H           4.67525033229758      1.50366520414826      2.10996471754374
  H           6.28076903538239     -0.95140940194037      1.23827978546187
  H           6.86809616616594      0.71071181411820      1.26018624214809
  H           5.60187752959569      0.24472516992640      0.13308664060643
