24
Coordinates from ORCA-job NEB_reactant E -44.465367262500
  C           1.84808300617229     -0.12993333891546      0.20905305636252
  C           1.56423099293172      0.92339598913557      0.98447446954323
  O           1.74227756032124     -1.42370887350713      0.62007439337475
  H           2.18204611672252      0.03968597553917     -0.80355924579759
  C           1.73115224270985      2.32266128306199      0.46138174160784
  C           4.20263203198528     -0.53290797865583      2.77381254909737
  C           3.27221764207828      0.27964414893909      3.24559354657530
  C           1.80268617035206     -0.00049064830068      3.17065443920073
  O           1.15810279470017      0.92228653946864      2.28444640160626
  C           5.66497443331425     -0.22936096721434      2.75005427589863
  H           3.91559191980400     -1.48722347623373      2.34989062166432
  H           3.53866910277866      1.24417604941661      3.65617600215288
  H           1.31381342901936      0.18387365219646      4.13051008199217
  H           1.61474093603886     -1.02898036521773      2.85080920398857
  H           1.99894910543636     -2.01552735034365     -0.09441126299057
  Cl          3.38419266670005      2.90123924274571      0.85961148499333
  Cl          1.53107901457904      2.44240684257851     -1.29004644786663
  Cl          0.56819093629438      3.41350211795462      1.22914245077851
  C           6.16343231789361     -0.12321528175257      1.30802768414917
  H           6.21075491725800     -1.02753682110228      3.26034231241130
  H           5.85819539993543      0.70809061085577      3.27334664552553
  H           5.99026478296081     -1.05519601548996      0.77403071942567
  H           7.22890416116436      0.09194997097778      1.28934340428669
  H           5.63901831884943      0.67596869386347      0.78904147202003
