22
Coordinates from ORCA-job P E -27.840454289700
  C          -1.28329424904264      0.70562906792368     -2.02561478775746
  C          -0.79709864584753     -1.85807697759495     -0.63062961206977
  C          -1.26689806469199     -1.76052946464008     -2.04735745758450
  C          -1.48466340043967     -0.61692507819190     -2.67773225243164
  C          -1.17267874438201      0.59592590763794     -0.51462874823153
  C          -0.21370313709903     -0.53462954937809     -0.12605655746573
  H          -1.42849634190191     -2.69718564205010     -2.56244896177799
  H          -1.81143693758082     -0.59987370211877     -3.70778620125566
  Br         -2.80983066539398      1.90061656213745     -2.47828699739190
  H          -1.64550546759805     -2.15046706574590     -0.00254114988518
  H          -0.42346586529191      1.22469884371362     -2.45881365232257
  H          -0.05621526216663     -2.65581449910038     -0.55046536036652
  H          -2.15930929029277      0.37391934335812     -0.10031932951571
  H          -0.15739722296949     -0.56444921789822      0.96784954301017
  H          -0.83738538893420      1.54599476836688     -0.09261766589777
  C           1.20139207797196     -0.29265740947541     -0.66691460141291
  C           2.25858808824006     -1.10749290940231      0.06989515187755
  H           1.44494356059106      0.76723396587919     -0.55956129320443
  H           1.23244702255124     -0.53794833318183     -1.73040454905951
  H           2.26003605230836     -0.86121582306347      1.12963634920604
  H           3.24600167197040     -0.89356809015450     -0.33217665879789
  H           2.07683020999954     -2.17446469702099     -0.03275520766509
