22
Coordinates from ORCA-job TS E -27.725498063950
  C          -1.24387927308956      0.91490044836942     -1.76631336817601
  C          -0.20166892100249     -1.42907460452509     -0.54088065754197
  C          -1.50562968072894     -1.31686987242976     -0.89818980008609
  C          -2.02314117568574     -0.17737707625983     -1.54649983817985
  C          -0.71521851403405      1.38209692967099      0.38500469451395
  C           0.04192930330176      0.37964122244063      0.90302396653734
  H          -2.22230109966347     -2.03693995362337     -0.52816350226444
  H          -3.09454654330265     -0.09438467374772     -1.66054172167652
  Br         -2.00623326641010      2.50503431442031     -2.47194136732448
  H           0.11437785792822     -2.27596022099580      0.04488319183173
  H          -0.18312337514429      0.87130510336665     -1.93766333529232
  H           0.57503362992396     -0.91422089017124     -1.07352966762183
  H          -1.75898453433436      1.46738921418878      0.63237694335330
  H          -0.39884323400353     -0.31955467908285      1.59668671283516
  H          -0.24254631040684      2.27240827484027      0.00425556575680
  C           1.54456660753929      0.49634081811213      0.93420051330031
  C           2.26199451140600     -0.72548987158761      1.49455698465514
  H           1.78792391323960      1.35400914169568      1.57190014036968
  H           1.92987216560089      0.73188941219999     -0.06157616993090
  H           1.85081624613243     -0.99355300263218      2.46531854075053
  H           3.32088019514883     -0.51055208955490      1.62106196556685
  H           2.16872149758504     -1.58103794469449      0.83203020862363
