22
Coordinates from ORCA-job NEB E -39.098309271210
  C           0.03124106720818      1.25271256011842     -0.35527480816134
  C          -1.32753066845120      0.96329404491170     -0.78533293038629
  Br          1.23468442843692      1.14268831245838     -2.02287191916102
  H           0.12391883519215      2.32316381128522     -0.15866027038333
  N          -1.97507709292930      1.87553165163831     -1.61087963994966
  C           0.53106588918770      0.42718571266642      0.83792020463849
  C          -0.50688903580223     -0.51043719883374      1.30200828515342
  C          -1.67298668165703     -0.92713445893233      0.53525306985827
  O          -2.01473168066706     -0.16961158075659     -0.57649394061357
  C           1.88098509815472     -0.33365062942123      0.66975682654745
  H           0.72955604876145      1.15157876588805      1.64306417287382
  H          -0.30429699893677     -1.06704596191657      2.20192373559853
  H          -2.56907652446982     -0.93348494187951      1.17488299579695
  H          -1.55396518498827     -1.97139928565275      0.19902089554196
  O          -3.11394672854543      1.61795491935468     -1.98331222052416
  O          -1.35998114830418      2.90781067716236     -1.88752618519522
  C           1.76673552999077     -1.63415895058247     -0.11495824552317
  H           2.25089859082442     -0.55797199478309      1.67174027171809
  H           2.59779241951392      0.33164354898445      0.19112492317192
  H           1.18604537267531     -2.37123895450367      0.43554371699962
  H           2.76076569938634     -2.03979789346060     -0.28234141559610
  H           1.30479276541938     -1.47763215374543     -1.08458752240465
