22
Coordinates from ORCA-job NEB_product E -39.137498322690
  C           3.21514040668126     -0.22323013837245      1.51473193487442
  C           1.91888358398058      0.46330737703785      1.29341942299851
  Br          3.31613940075759     -1.72096354476196      0.26570522042561
  H           4.05017934688563      0.44384386406178      1.28763779419317
  N           1.98088905360607      1.96651580823268      1.71007135488266
  C           3.27018088014537     -0.64223874263110      3.01110372298856
  C           2.44296799139427     -1.87163815845527      3.24886481613398
  C           1.22993628895665     -1.84577524622414      3.76751452941535
  O           0.87275994667677      0.05487600615047      0.92777899676383
  C           4.71559855725606     -0.77788766586860      3.51747894575355
  H           2.81895282463875      0.18441131017391      3.57708580713823
  H           2.89184494573179     -2.80761064315626      2.95084995682659
  H           0.75200999165383     -0.92672529501157      4.06820998631081
  H           0.66036582204859     -2.74624061715638      3.91518392382623
  O           0.92350450506656      2.52885977353492      1.75698189232155
  O           3.07178522918043      2.42703080306735      1.95301704228124
  C           5.60107765963191     -1.75211539343042      2.75128284982193
  H           4.65289845235366     -1.09416642909734      4.56139034480104
  H           5.17669444976477      0.21277240012589      3.50134349481485
  H           5.15496675007528     -2.74101872001697      2.69561358638220
  H           6.55616044739757     -1.84278911444504      3.26305569867245
  H           5.79896346611662     -1.40561763375735      1.74057867837324
