23
Coordinates from ORCA-job NEB E -61.493994141240
  C           0.67698907161927      0.45827271506138     -0.53217732205016
  C          -0.28698545490294      1.41002576378911     -0.15369368310760
  C           0.55862596217008     -0.08949289336659     -1.94298295935769
  H           1.71720614488918      0.69356218155714     -0.32222012119187
  C           0.06423724124130      2.51220958780694      0.81554729272191
  C           0.21120256841394     -0.99250910608168      0.64939459667411
  C          -1.13480681521329     -1.20027642232981      0.34820926146407
  C          -2.05020085455432     -0.10437798273108      0.52855039180972
  O          -1.55497360911212      1.12607449976813     -0.28870754278897
  C           1.17719312426235     -2.14708546824458      0.47407683645243
  H           0.45679408656817     -0.43426122299410      1.54872285866015
  H          -1.40420074688695     -1.99753920632957     -0.32804109833029
  H          -2.08019122786549      0.30404454628452      1.53857224341393
  H          -3.04501198830141     -0.27411961665980      0.12980190555366
  F           1.52915224829625     -0.95273557177552     -2.23854809014503
  F          -0.60033095325085     -0.67946849538166     -2.23377446398906
  F           0.69222126176011      0.92707582752565     -2.81634847820830
  Cl          0.06225038631642      1.87536781606159      2.51335038254788
  Cl          1.66536453788035      3.18918714295138      0.49894082385131
  Cl         -1.15289072361868      3.79356541993406      0.72570272540932
  F           0.88713535258742     -2.91060755948364     -0.59754684805861
  F           2.44556777244350     -1.70197226854024      0.32171616447583
  H           1.16565261525772     -2.80493968682161      1.36145512419325
