17
Coordinates from ORCA-job NEB E -37.026272440630
  C           0.21165604855030      0.88740728619635      0.96543092493867
  C          -0.70750613518155      0.02659003978806      1.59166798660326
  C          -0.34417023053563      1.96692734553080      0.21429443737984
  H           1.11528662914915      1.16013963904555      1.50452362466286
  I           0.04148586624926     -1.12012055679810      3.25731397331425
  C           0.78920990706308     -0.32032820085695     -0.44588195899350
  C          -0.40659359239087     -0.70547544964201     -1.05517007239817
  C          -1.34615134435468     -1.42877135516199     -0.28070276896999
  O          -1.72154358138205     -0.42142082751455      0.98697549770929
  N           1.71580508714068      0.50102230834934     -1.22612666211012
  H           1.33780949100859     -1.00649875741832      0.19498675833524
  H          -0.74422644907815     -0.11834434107461     -1.89843773050485
  H          -0.97497585161677     -2.27840610357661      0.28800262171630
  H          -2.31730545856252     -1.60556020922100     -0.72421225578426
  N          -0.78733890817305      2.84965460980815     -0.35999223676847
  O           2.86404726360499      0.49636294714399     -0.85166896280814
  O           1.27451125850922      1.11682162540188     -2.16100317632222
