25
Coordinates from ORCA-job P E -31.732468541850
  C          -1.35271942001680      0.22319599068641     -2.57383662674576
  C          -0.14956429837908     -1.61843876750664     -0.91279158633221
  C          -1.46425032523493     -1.96476271382421     -1.53005237852172
  C          -2.03251605848754     -1.09277407859958     -2.34709469949757
  C          -0.96777264723689      0.80034738280165     -1.19618361739148
  C          -0.16628972927881     -0.18306376920693     -0.32248013869005
  H          -1.91034198711652     -2.92068766765222     -1.30479738270565
  H          -2.97796424103592     -1.24634231634198     -2.83846188559729
  O          -2.23330067279361      1.06270777174476     -3.29236718484834
  H           0.12605750614101     -2.33087924273478     -0.13353017495293
  H          -0.43306598000476      0.06702488549579     -3.16972910373951
  H           0.61661104046876     -1.65933216216762     -1.69302039299083
  H          -1.90123131214802      1.06158065450543     -0.69624176874328
  H          -0.65909550660742     -0.24016238272267      0.65462032121539
  H          -0.38695028317393      1.71521293807627     -1.31010588599431
  N           1.15730884295060      0.35769387117771     -0.04314745631080
  C          -1.64738004344420      2.22127875652648     -3.82235438678110
  H          -2.40261729948935      2.68292617525326     -4.45624133345615
  H          -0.76472629209173      1.97885888691545     -4.42911127179039
  H          -1.35424721901197      2.93220457308072     -3.04152008364641
  C           2.08461087729660      0.45989083058224     -1.15201907991719
  H           1.58933720037453     -0.17497451721728      0.70487972358666
  H           1.61256512723924      0.99632682713284     -1.97281408482688
  H           2.44942099891844     -0.50468537280760     -1.53394501305754
  H           2.94635172216231      1.03696344680250     -0.81656450826467
