25
Coordinates from ORCA-job TS E -31.642137081780
  C          -1.08150262056266     -0.08575506189546     -1.03515687565897
  C           0.27230887327467     -2.12770731634669      0.43790655814287
  C          -1.04914228883134     -2.20793250869444      0.13230304659758
  C          -1.71838755004999     -1.23291485224842     -0.62101501891004
  C          -0.50964556918989      0.74033078188692      0.89916808256974
  C           0.28338830701729     -0.11080032721296      1.62883677702235
  H          -1.65532861771271     -2.95781816641176      0.62289548868991
  H          -2.79673590834519     -1.24466205873685     -0.65890282158603
  O          -1.83250990175378      0.88560208882890     -1.63278447254600
  H           0.71916104823200     -2.84892835877545      1.10446437381753
  H          -0.03640197978320     -0.09821774394612     -1.31690173157368
  H           0.96103796479577     -1.59431015941845     -0.19077583516715
  H          -1.54227750043714      0.84224819907288      1.17663588031063
  H          -0.16200033481764     -0.71375215436633      2.40449069651178
  H          -0.06936948014482      1.59606437649373      0.41897794379861
  N           1.65620791236362      0.02958190999019      1.77790738535211
  C          -1.12271669881896      1.90430668022981     -2.28804097016482
  H          -1.86395786230921      2.52943197187063     -2.78309979907237
  H          -0.43400949850674      1.49705985525139     -3.03713033937849
  H          -0.55359157601554      2.51800199691309     -1.58026657142606
  C           2.44446489018883      0.72460467621944      0.78990413324516
  H           2.10862059574613     -0.80264025152954      2.12833668439696
  H           2.09081510700976      1.75159219189907      0.70119951514516
  H           2.41147201369750      0.25799435845477     -0.20355196877548
  H           3.48010067495326      0.74861987247165      1.12459983865872
