30
Coordinates from ORCA-job P E -40.029597778570
  C          -1.40733886926522      0.27634630792449     -2.47034994801959
  C          -0.32120544118659     -1.94589348952348     -1.20037658718636
  C          -1.68682627651367     -2.04123816250376     -1.80162271039847
  C          -2.19621161093287     -0.99969388533142     -2.43875035722442
  C          -0.91111306567489      0.54886524481285     -1.03762280751095
  C          -0.08167951980858     -0.60679808471142     -0.46165172454284
  H          -2.20771822746153     -2.98377837168929     -1.72754461194049
  H          -3.16363114236431     -1.02384440795418     -2.91566772250101
  C          -2.20082174123421      1.44793393181403     -2.97961038249910
  H          -0.13549317428600     -2.78528019623844     -0.52910685599928
  H          -0.52427104292582      0.13485713291896     -3.10538463544109
  H           0.41590803325158     -1.99125542204014     -2.01024575633028
  H          -1.77738962984708      0.73020480959808     -0.40067139225993
  H          -0.34430232113682     -0.74036975967356      0.60151952377500
  H          -0.28455501137461      1.44129048897318     -1.02781887921502
  O           1.27886518995761     -0.21190347444716     -0.53930002851228
  C          -3.46520503510179      1.71845495922335     -2.46911361821533
  C          -4.19365658653760      2.80193405931133     -2.92503907240020
  C          -3.66655266359375      3.63426794958677     -3.89795627807348
  C          -2.40728512384416      3.37596339213267     -4.41038561567946
  C          -1.68091328411214      2.29033437161291     -3.95305951357013
  H          -3.88295816564940      1.07291889890785     -1.70944807910426
  H          -5.17598698729783      2.99854997274901     -2.52003591444632
  H          -4.23532603721864      4.48042212756541     -4.25467336751487
  H          -1.98937916904869      4.02134516445506     -5.16947066288088
  H          -0.69787079042338      2.09395885390834     -4.35768616841723
  C           2.16617013440152     -1.00917062899354      0.19865281857165
  H           3.13443032689416     -0.51361510175684      0.15213858955688
  H           2.26057347294431     -2.01888666814234     -0.21704220235950
  H           1.84904375939040     -1.08821001248874      1.24663396033924
