30
Coordinates from ORCA-job TS E -39.931482136910
  C          -0.35738320966031     -0.30714047318401     -0.71263019720737
  C           1.03666910904712     -2.57835045684371      0.33252169203998
  C          -0.30357164222628     -2.58992919767963      0.10130523334725
  C          -0.99581116545951     -1.49487603611505     -0.43626403646295
  C           0.32629166765816      0.19894509917441      1.29832879166918
  C           1.22714368594627     -0.71765513158919      1.75915292729250
  H          -0.89459594685097     -3.40512149847329      0.49940158810933
  H          -2.07551759345038     -1.53551354553026     -0.44217342153524
  C          -1.06325859029363      0.89524964614632     -1.14820077658571
  H           1.49069222027239     -3.41195585125235      0.84585685101868
  H           0.68221464763109     -0.34018275944218     -1.00448214880128
  H           1.70660710073845     -1.96565809560011     -0.24228871840989
  H          -0.67189910065258      0.19381951978809      1.69227387401432
  H           0.96829358538807     -1.46007703631691      2.50100252927494
  H           0.69552150645260      1.12803633220075      0.90404317512908
  O           2.56279471782732     -0.47827042905896      1.56988910719518
  C          -2.37263320536795      1.17513689012994     -0.75609864417484
  C          -3.00829055778029      2.32554042065012     -1.18179346215136
  C          -2.34946727372535      3.22607783828943     -2.00263280949256
  C          -1.04448329583105      2.96953783745440     -2.38963163419417
  C          -0.40773913595083      1.82073994871967     -1.96193332290326
  H          -2.89402236266033      0.49112275341446     -0.10319387438153
  H          -4.02319654489268      2.52527138845292     -0.86867696736324
  H          -2.84799047974225      4.12532024519181     -2.33343931010149
  H          -0.52168718566762      3.67043607359045     -3.02457256642703
  H           0.61135291079168      1.62683628464709     -2.26670188703391
  C           3.44613423802152     -1.35630190462161      2.21855412743596
  H           4.44888207075303     -0.97163367068663      2.03994461648639
  H           3.37113170652172     -2.37128577682107      1.81504691308812
  H           3.25781812316260     -1.38811841463488      3.29739235112492
