22
Coordinates from ORCA-job TS E -34.847146994150
  C           0.13514239529556     -0.04002459079876     -0.75899320223259
  C           1.58356624959611     -2.26894953250637      0.27729699884295
  C           0.23484547555845     -2.30130943784997      0.12122011924078
  C          -0.48149398155767     -1.21280616242798     -0.41064035800690
  C           0.92771043239538      0.53027536814146      1.26426695886377
  C           1.75654284581968     -0.44205404991147      1.71563586473572
  H          -0.33699606792192     -3.09398842030277      0.58435915350469
  H          -1.55983214184222     -1.22879907922899     -0.34677311976273
  C          -0.62306854398127      1.16221733482655     -1.14890621818018
  H           2.09367985500926     -3.05420339098123      0.81170628848257
  H           1.16019271041409     -0.02089065412650     -1.09592837687151
  H           2.20353830334194     -1.67211403987742     -0.36665979135155
  H          -0.08128080289158      0.57439252271194      1.63585210977338
  H           1.47886841477792     -1.16236637815448      2.46474153176391
  H           1.32041649514426      1.42411430762023      0.81094578046258
  Br          3.64658292452825     -0.23877914090931      1.55872811305278
  O          -0.14431128856327      2.10486426458467     -1.73172556833781
  O          -1.90868315354563      1.11781389485354     -0.75590361323855
  C          -2.69896693016396      2.24640939989620     -1.09581791452848
  H          -3.64990995894269      2.11864327950225     -0.58477505475323
  H          -2.84976935545615      2.29165096613864     -2.17644781464632
  H          -2.20677387701455      3.16590353879978     -0.77218188681328
