24
Coordinates from ORCA-job NEB_reactant E -44.920570926320
  C           1.58000357789140      0.01550833090736     -0.04825818614706
  C           1.45253009374899     -1.22076465795417      0.46725711087646
  C           1.66700022141938      0.37304405011367     -1.40050448199706
  H           1.62198374536313      0.85864041137734      0.62581188933657
  C           1.43299015265957     -1.43313882632128      1.96808595605936
  C           3.77324566645886     -3.48489193683977     -2.28230534708621
  C           3.05440209635567     -2.45118276571777     -1.87606597041059
  C           1.59718885678946     -2.54782658833686     -1.53973035255889
  O           1.36764963161132     -2.40726715102929     -0.13388813296319
  C           5.22559251955964     -3.47299376904363     -2.63617220184113
  H           3.29423809588039     -4.45044950619659     -2.39572279080908
  H           3.49624711790646     -1.47507899469645     -1.75118692219114
  H           1.21322494162566     -3.54511784827778     -1.76633251646333
  H           1.01553576817539     -1.79935628520469     -2.08780624902090
  N           1.75295711594565      0.74759785194563     -2.48304325052790
  Cl          1.02519169134712      0.01418904385317      2.89149363252895
  Cl          0.27492421488202     -2.71039930055172      2.39451594995891
  Cl          3.07424761571834     -1.96864767926495      2.44615698208899
  C           5.92072630668158     -2.12884995346836     -2.46897315893836
  H           5.32128231874224     -3.80673727102764     -3.67432370859613
  H           5.72845440723459     -4.22428356157383     -2.01882789995778
  H           5.45650134509039     -1.37494007659217     -3.09970516946172
  H           6.96700118871609     -2.21564464731669     -2.75209359319912
  H           5.87348131019666     -1.79790886878350     -1.43428158867965
