19
Coordinates from ORCA-job NEB E -44.142704981660
  C           0.00728067799167      0.97888278500218     -0.25028668736643
  C           0.70183507074490      0.52208668337926      0.89848950806051
  N           0.78439559787604      1.60052650422397     -1.36499449818310
  H          -0.80597484743108      1.66118758774186     -0.00231379005582
  N           2.06123326153428      0.03984092404478      0.76188898151437
  C          -0.97617136288750     -0.48456133153860     -0.78023335978356
  C          -1.21299928546870     -1.25557526302145      0.39159884527409
  C          -1.37763018113020     -0.50028691108680      1.62607011403363
  O           0.01722585234149     -0.04518040207526      1.86351310493240
  C          -0.34630352467363     -1.24283025180860     -1.83130667802757
  H          -1.81526017554489      0.09779440701577     -1.15823305397112
  H          -0.69364444543629     -2.20109181209223      0.48489938668160
  H          -1.60860221872762     -1.09358273500459      2.50687896342208
  H          -2.03075623670959      0.37325529939728      1.56026150000074
  O           1.14649211138291      2.72108829640833     -1.12808340711989
  O           0.87437100433702      1.00200544328109     -2.39662533380935
  O           2.67654726618689      0.46702863431155     -0.19641914148334
  O           2.47966205093350     -0.69842282808090      1.61993635643583
  N           0.11829938468078     -1.94216503009765     -2.60504081055506
