19
Coordinates from ORCA-job NEB_product E -44.188338927210
  C           1.16989711109315     -1.37222131991447      0.32801095827288
  C           2.66375355507415     -1.57869646863029      0.22667587320069
  N           0.77977019050369     -0.16404444082952     -0.49643021762996
  H           0.94062530714852     -1.12302695903251      1.37244909082005
  N           3.14017612124831     -1.65509839599758     -1.24766778648878
  C           0.36449540427097     -2.61637293922882     -0.11568026411701
  C          -0.94722092133508     -2.71391670289661      0.62556870896421
  C          -2.11731474019719     -2.61421170865780      0.02663364281713
  O           3.45800902389972     -1.70875833915794      1.08691476386431
  C           1.14185471553598     -3.81565858619027      0.12920966793754
  H           0.17619505696840     -2.54346348678309     -1.19526704863582
  H          -0.86279160045696     -2.88463851775125      1.69025701936340
  H          -3.03692929747304     -2.69131154178583      0.57939830923959
  H          -2.20308527298841     -2.44030072985845     -1.03261231372098
  O           1.57739890344605      0.73569856968165     -0.47049868881601
  O          -0.27751317831140     -0.18641728051478     -1.05036890401120
  O           2.26670892073903     -1.58754517028019     -2.07990377934320
  O           4.31401333548624     -1.78619844825697     -1.41070062135404
  N           1.74325736534787     -4.76511753391528      0.32811158963722
