21
Coordinates from ORCA-job NEB_reactant E -45.892950626860
  C           1.44805984243575      0.22526646232025     -0.00017612167982
  C           1.22759510745241     -1.08460445579160     -0.18309629922082
  O           1.34108958553383      1.12121048206231     -0.99246816999526
  H           1.74640742589945      0.58816054949562      0.97669200818608
  C           1.30974495426797     -2.02520012357150      0.99145287648646
  C          -0.46546392290063     -3.94789574505465     -3.49673284535317
  C          -0.41218383842863     -2.74325199359113     -2.95537030777846
  C          -0.14798525065813     -2.51358648427180     -1.50168295761068
  O           0.96572983012453     -1.62419077299217     -1.41125785894141
  Cl         -0.78738989730348     -4.20138970226350     -5.16091672410295
  H          -0.33198969090790     -4.86130377078729     -2.93697251884536
  H          -0.53439392312023     -1.85121450496065     -3.55037696161375
  H           0.06528356285091     -3.46250684685507     -0.99493141644828
  H          -1.02873910332023     -2.04968772190359     -1.03475216609510
  C           1.77377030531935      2.43104714883079     -0.68856919967249
  H           1.54429509647389      3.03572364140001     -1.56344728478904
  H           2.85123350414574      2.45679269180860     -0.50122209195914
  H           1.24641209826364      2.83246381813307      0.18206213799748
  F           0.09313701023820     -2.36163620524925      1.48044766609297
  F           1.91334249684379     -3.18179205241529      0.68896355130234
  F           1.98024480678976     -1.49780441434317      2.02635468404041
