21
Coordinates from ORCA-job NEB_product E -45.886182548540
  C           0.65906425895232     -0.64358450156253     -1.25017771677887
  C           1.47352509777028     -1.49654342485367     -0.27551235503994
  O           1.49611981496607      0.14003902106990     -2.05058923838421
  H          -0.06161201072835     -0.02025003336921     -0.69671166283556
  C           1.00773207126965     -1.38018909054978      1.20884131309973
  C          -0.08216113743966     -1.62677070751566     -2.17907237949290
  C          -0.82982887710188     -2.67724496371526     -1.42659344299237
  C          -0.56090873327545     -3.96631545770893     -1.52297322526031
  O           2.41191381087389     -2.17396767754545     -0.56307990491576
  Cl         -1.22985056714917     -0.68508049342766     -3.17354366520903
  H           0.65477670351931     -2.05727899513366     -2.86124072779464
  H          -1.63112142008325     -2.31550479738692     -0.79791822704615
  H           0.23023716666380     -4.33670166971915     -2.15355910063072
  H          -1.11931123836361     -4.69967988050807     -0.96847903611356
  C           2.07657388096229      1.24113389256914     -1.38429717027157
  H           2.61788142991753      1.79495167014988     -2.14747786767382
  H           2.77279692504107      0.92109647534120     -0.60208415037065
  H           1.30825368712432      1.88296291311368     -0.93961918003787
  F          -0.31607233219444     -1.54322470475736      1.33797625541287
  F           1.60256277265234     -2.26294238886702      2.00198803234962
  F           1.29122869662296     -0.15230518562349      1.67522344998572
