22
Coordinates from ORCA-job NEB E -33.667971019590
  C           0.39640233689590      0.14833226163510     -1.25349057887489
  C          -0.29776110632220      0.89523171216905     -0.31137995535759
  C          -0.33959039985561     -0.57360065350065     -2.34702444717915
  H           1.36406473440011      0.54674707751933     -1.53261887626105
  O           0.40670720064160      1.90075954445847      0.27632083715640
  C           0.81905001847508     -1.46698174418101      0.06718640450109
  C           0.10577476354892     -1.22818398213133      1.23366586816433
  C          -1.27883747312448     -0.96929834673485      1.08769711957486
  O          -1.38705487684161      0.49179447096975      0.24354450442075
  C           2.23316868647671     -1.46308694272667      0.09970129296573
  H           0.38998436866118     -2.13609515848785     -0.66673111310210
  H           0.62625798591238     -0.77392542212308      2.06761288907074
  H          -1.84622913011001     -0.72854386034176      1.97768426113975
  H          -1.82433053494189     -1.60417882375058      0.39765272621394
  H          -1.28837239433709     -0.96824597535210     -1.99126283609758
  H           0.26125410919398     -1.37747381132964     -2.76741952421521
  H          -0.55047925777866      0.13203948991651     -3.15193844925819
  C          -0.18727208628403      2.53222558871891      1.39436629115190
  H           0.48556694961711      3.34122865549924      1.66826916717014
  H          -0.29499270431589      1.83837042221781      2.23136842596670
  H          -1.17172184691741      2.93054203027349      1.13558125553234
  N           3.37841065700591     -1.46765653271814      0.14121473731710
