22
Coordinates from ORCA-job NEB_product E -33.736331763220
  C           2.63638152861144     -1.18880034334312      0.94288309551781
  C           1.55464308508592     -0.29008833445030      1.52001973966996
  C           2.60060322619368     -1.11978254071003     -0.58251505150128
  H           3.60674081172129     -0.85552777335886      1.32098863446190
  O           2.07440865660113      0.63379553759247      2.32972834030065
  C           2.34269542848476     -2.62148147922142      1.44918681498173
  C           2.31760261603411     -2.65589911728063      2.95546373132216
  C           1.24515239492138     -2.95838120462707      3.66044165372371
  O           0.38051806484677     -0.39841869785348      1.28759232362433
  C           3.36193921311315     -3.52779532851987      0.97412562971454
  H           1.37193349212113     -2.94026905115669      1.05170763635081
  H           3.25172012854270     -2.39785074895593      3.43676558656937
  H           1.25753873205787     -2.95850760219011      4.73692667772374
  H           0.30849032001837     -3.21253014740477      3.19185206641520
  H           1.60040276757408     -1.35342953331786     -0.94172609151605
  H           3.30550203497635     -1.83023900898943     -1.00879722870904
  H           2.86465539047015     -0.12042654971438     -0.92097962952081
  C           1.15138495307970      1.52316672341984      2.94628855044486
  H           1.74605773553115      2.24232573673685      3.50298123330246
  H           0.48955489310868      0.97116710275468      3.61634464059139
  H           0.54712398735879      2.02569370465753      2.18884576740474
  N           4.18705053954741     -4.23562134406741      0.62097587912781
