23
Coordinates from ORCA-job NEB E -39.984889330600
  C           0.06540630866790      0.01868128823410      0.65040482728576
  C          -1.14438505083009     -0.64162412405132      0.33790962398087
  C           0.05287983796495      1.53971763558485      0.75486389285524
  H           0.58897206251537     -0.41237365189994      1.50150302565955
  C          -1.34163672228689     -2.06516429660321      0.84787579390106
  C           1.10324987707682     -0.33024507943489     -0.84763894122273
  C           0.28944722540627     -0.75070690651437     -1.91442430175053
  C          -0.93099954161018     -0.01507226623817     -2.05547256844425
  O          -1.77370954074604     -0.36200519713575     -0.76931021984459
  I           2.69863209345446     -1.65075181518847     -0.29552763687112
  H           1.51270467345002      0.66763301878110     -0.92596226397455
  H           0.24345936146624     -1.80575997959528     -2.15006784381779
  H          -1.59343317705527     -0.34021715701389     -2.85059027489976
  H          -0.83897207708457      1.07031420517813     -2.02768319737957
  C           1.35310262012752      2.09606599899937      1.32375066279138
  H          -0.76180070861369      1.80590430416696      1.43340519387401
  H          -0.16863148163547      2.00535577400653     -0.20643855185050
  H           1.53911320137808      1.68728813224024      2.31422052000058
  H           1.28676619720558      3.17785497471391      1.40822533863773
  H           2.20982697562691      1.86091561570868      0.69593849187290
  F          -2.63545912339750     -2.29530504269095      1.16669067212442
  F          -1.02571993063720     -2.96473175308412     -0.12399099616179
  H          -0.72881308044320     -2.29577367816351      1.73231875323369
