19
Coordinates from ORCA-job NEB_reactant E -30.536173750600
  C           1.78850254139502      0.03700972237058      0.02934448756475
  C           1.09902129234797     -1.06292679373627      0.37355284464624
  C           2.26920148846111      0.31748891540279     -1.34986278233567
  H           2.00808428254948      0.76389670289943      0.79702681734912
  C           0.69446744386957     -1.21854297200462      1.72424399369727
  C           0.33781596549015     -5.27540670007935     -1.32039304038647
  C          -0.18994642304960     -4.06401600959936     -1.21133402502603
  C           0.06931567292331     -3.15693737227398     -0.05423975031744
  O           0.77929726810595     -2.02491805824710     -0.54062778623997
  O           0.14422306006289     -6.13532961264412     -2.34026223939740
  H           0.97567823910547     -5.70380939833189     -0.56045985537007
  H          -0.81637528931154     -3.65920975564263     -1.99448575695015
  H           0.65877101987900     -3.67364942782349      0.71444559254177
  H          -0.87958920653958     -2.82937055529763      0.39707453458920
  H           1.99953309589903     -0.49586306357555     -2.01702189939491
  H           3.35209939004852      0.44121850025075     -1.35157301380897
  H           1.83231774458728      1.24581614992913     -1.71827381594727
  N           0.36996728041904     -1.32763645898194      2.81971020473948
  H          -0.42108486624307     -5.73171381261475     -3.01186450995347
