19
Coordinates from ORCA-job NEB_product E -30.525689283350
  C           1.22150174675638     -1.60650005678036     -0.31810598831107
  C           2.47666277954607     -1.66068829245049      0.53546116857101
  C           1.53354487386651     -0.97507378144036     -1.66930332085746
  H           0.48252612241982     -1.00541769933455      0.22640186464868
  C           2.25898920803911     -2.33005197077723      1.81084748737403
  C           0.65117021083509     -3.04217546636993     -0.44493153358853
  C          -0.55106686136945     -3.06045008827959     -1.34857036479887
  C          -1.79528841819005     -2.98675701187964     -0.91635584052601
  O           3.54059214049876     -1.18981861381917      0.23718491891570
  O           1.69997865047186     -3.85245585223173     -0.93463428278473
  H           0.35261721427528     -3.38387217135516      0.56133182300519
  H          -0.32483974773123     -3.14301487060118     -2.40259014652257
  H          -2.02691299750561     -2.91009003074649      0.13364024835906
  H          -2.63292631602076     -2.99558308511901     -1.59186483163302
  H           0.61731574809175     -0.77523725904636     -2.21786054183867
  H           2.16371230023617     -1.64671179130860     -2.24645425204473
  H           2.07107566820640     -0.04108898474718     -1.52445835751932
  N           2.07407695656873     -2.84519998418180      2.81631430069509
  H           1.35857072100518     -4.73261298953119     -1.12365235114378
