21
Coordinates from ORCA-job NEB E -41.298104375750
  C          -1.28990756655823      1.68581680694892     -0.17867278550823
  C          -1.55547266393506      0.67411284321797     -0.99348923129498
  H          -0.97649982761657      1.52968743644075      0.83482460559992
  H          -1.36651872426795      2.70066534010411     -0.51440530709924
  C          -1.98165579849424      0.84538039318516     -2.43205425400588
  C           0.99756112699100     -0.29862569835119      1.67357812914090
  C           0.41641656315974     -0.97564236012594      0.69003664740767
  C          -1.06975211281715     -1.09557590405279      0.54924774470727
  O          -1.53026837390025     -0.65239748595719     -0.72255548051825
  O           2.29667536853983     -0.08406722965057      1.94963936006719
  H           0.40096727637915      0.18311465928916      2.44051385230632
  H           0.97343397099627     -1.47007579999937     -0.09044108246981
  H          -1.59097093928670     -0.56542764571527      1.35409795218738
  H          -1.36810075766859     -2.14902494432750      0.56700162288540
  Cl         -0.80772874036844      0.01213710275177     -3.48430141221924
  Cl         -3.57672955666947      0.08523515576716     -2.66690949099639
  Cl         -2.08803218873297      2.52492003216749     -2.94506552235521
  C           3.31766682060428     -0.63675208491399      1.14103008723238
  H           2.93082437560091     -1.18267523051097      0.28466739623394
  H           3.91846745203904     -1.31136116857917      1.75551833881389
  H           3.94962429600539      0.18055578231145      0.78773882988493
