21
Coordinates from ORCA-job NEB_reactant E -41.301155202040
  C           1.07519336882391     -0.00645291434949      0.30885159016457
  C           1.55554529598510      1.12715300426945      0.80390369878666
  H           1.29206889895153     -0.95810568874193      0.75519572567975
  H           0.44746654436616     -0.01027151682494     -0.55982936336912
  C           1.28642576246121      2.48781050357482      0.20913177429354
  C           3.31456473375581      0.43648181561312      4.98639921422739
  C           3.65433992045984      0.56859581710016      3.70891220921617
  C           2.76564290006095      0.12314641991141      2.59382061720531
  O           2.35490059291975      1.28633792194264      1.88226221996051
  O           4.00778217282918      0.79858796025732      6.08171018905372
  H           2.38505173415146     -0.03505202481113      5.27921169256034
  H           4.56873718500911      1.04884895332925      3.40118585721171
  H           1.88596921810268     -0.40341060407117      2.98374599114690
  H           3.30817725206101     -0.54193855455380      1.90685956990298
  Cl          0.19307163982954      2.45099303347574     -1.16972713586201
  Cl          0.58099036994604      3.54580556869237      1.45706157696154
  Cl          2.83276281365576      3.20097882634949     -0.32087066287597
  C           5.24111945599184      1.45461118153792      5.88946750769884
  H           5.62000838674396      1.68015686184064      6.88449434034424
  H           5.10998958696851      2.38334197100087      5.32676032675893
  H           5.95249216692665      0.81088146445725      5.36335306093401
