21
Coordinates from ORCA-job NEB_product E -41.301685523770
  C           2.15880874868533      0.88050597651902      1.73906927693079
  C           1.30131757473211      2.09147498315864      1.97924847183748
  H           1.50312578554005      0.03904418291306      1.50750627171692
  H           2.85622053187459      1.03963855746358      0.91941410227129
  C           1.44303247342587      3.20121418799183      0.91626046666297
  C           2.94366279029436      0.55955571901200      3.02664419362369
  C           3.68053942918388     -0.74297096136649      2.87278050945620
  C           3.40960601461005     -1.83126371837983      3.56725610000179
  O           0.56109567398367      2.22966747422909      2.90674401778449
  O           3.82934511296442      1.64742094081544      3.22403441916813
  H           2.23640790828455      0.49660806075844      3.86949341830079
  H           4.47935227540332     -0.72229806261484      2.14424196349076
  H           2.62018665267721     -1.85273806341664      4.30103624045574
  H           3.95806910589378     -2.74701528669478      3.42798900925682
  Cl          1.07750352732929      2.50543780839079     -0.67893645210780
  Cl          0.33230820199335      4.53347378155060      1.23930785713145
  Cl          3.11454850184745      3.79423468107112      0.93848037845370
  C           4.43901594193466      1.65713348101357      4.49047117179739
  H           3.68825378653472      1.72429447115408      5.28706000759940
  H           5.07478339951680      2.53954159240405      4.51455032706276
  H           5.04771656329055      0.76044019402728      4.65224824910526
