33
Coordinates from ORCA-job P E -39.950522748050
  C          -1.43561021203746      0.26359262520232     -2.22519074999215
  C          -0.27126706893519     -1.78853787011945     -0.81155951373277
  C          -1.71513379086785     -1.90644839066818     -1.18001509971355
  C          -2.27477529964716     -0.92758560870872     -1.87313290466092
  C          -0.75026154718921      0.73398582465952     -0.92762631888218
  C           0.01266518105096     -0.39015234210371     -0.20810911872872
  H          -2.25614803694459     -2.78802799230896     -0.87253022703537
  H          -3.31272744911844     -0.96396581882120     -2.16007144174984
  C          -2.20013993356442      1.37821882859499     -2.97659794145558
  H           0.02014313028159     -2.56734697569357     -0.10742960671142
  H          -0.63449868495023     -0.07631583321593     -2.89623437778196
  H           0.33559637136745     -1.90199526101490     -1.71679255253561
  H          -1.50793524402073      1.13797071413876     -0.25639628192307
  H          -0.29148237844727     -0.41782527707353      0.84277821337097
  H          -0.03726799256819      1.52416585194091     -1.16202970173684
  C           1.51755420564990     -0.16184488601990     -0.24436060386901
  C          -3.39218286450294      1.90518348751045     -2.17381335287920
  C          -1.25845105678729      2.54768921435487     -3.28652454526630
  C          -2.69993010255205      0.81053058986879     -4.31120101086142
  H          -3.06311001955611      2.38059337340174     -1.25334489242846
  H          -4.08491832697573      1.10756975321262     -1.91910566835500
  H          -3.93107421407690      2.64710923859903     -2.75943316450286
  H          -1.00040965244604      3.09780593023667     -2.38586320699658
  H          -1.74056386441121      3.24020244753367     -3.97351181371022
  H          -0.34047295121510      2.19231333132167     -3.74907082995727
  H          -3.37736042038824     -0.02566933620125     -4.16135377284464
  H          -1.86263904425519      0.46523463823484     -4.91412051638267
  H          -3.22992201415498      1.57749695732473     -4.87198034356185
  O           2.03910884327572      0.67821116128740     -0.93272486969131
  C           2.32585235818064     -1.09446856572080      0.62561678791337
  H           1.81936985847490     -1.30393843201615      1.56326114870852
  H           3.30418410848875     -0.66099384333620      0.81733204667778
  H           2.47042811284260     -2.03335753440055      0.09346623127613
