33
Coordinates from ORCA-job R E -39.862051465330
  C          -1.57392743957977      0.14760954433982     -2.50635792229028
  C          -0.40029895468699     -2.37904449362544     -1.32533288457455
  C          -1.66245338361819     -1.97337997104978     -1.23226335511826
  C          -2.25082793073406     -0.83724942683847     -1.91659492142820
  C          -0.74786595779270      1.06711692913307      0.48628605159279
  C           0.16646448601083      0.13970349169169      0.73994212993942
  H          -2.34663116929728     -2.53458213609059     -0.60639579570438
  H          -3.33359083003563     -0.82013461477166     -1.91472056005443
  C          -2.19409618898361      1.30638475470437     -3.24626291218234
  H          -0.04674685454485     -3.24165238375143     -0.78547347675562
  H          -0.49391862751718      0.13563304187523     -2.48442811224928
  H           0.31755391875410     -1.88243844886180     -1.95456217400427
  H          -1.66614878034212      1.14916314927344      1.04173024616447
  H           0.03983855272747     -0.58543375240270      1.53037040143846
  H          -0.57969989440419      1.78040314114284     -0.30351410449001
  C           1.41492135314814      0.05654204724712     -0.04910991422519
  C          -3.27103866554659      1.99341951708745     -2.39777018066220
  C          -1.10438500942865      2.32319184220311     -3.59506243322055
  C          -2.82878011734282      0.78164535988984     -4.54268506649688
  H          -2.84920517891336      2.34782222566499     -1.46019805946351
  H          -4.08571437263894      1.31115976297054     -2.17077698099429
  H          -3.68142614269037      2.84575365547889     -2.93547944311195
  H          -0.62053723565737      2.69214823355139     -2.69371068104924
  H          -1.52791189300357      3.17089331826523     -4.13006261157082
  H          -0.34372011417577      1.86591895700948     -4.22359846115607
  H          -3.61528693263637      0.06426679820012     -4.32156749780287
  H          -2.07970470154213      0.28782676914337     -5.15770507832247
  H          -3.25779514598369      1.60328809564978     -5.11261140782701
  O           1.60921943549907      0.72273929948217     -1.04055242254129
  C           2.42685785566448     -0.92450653980869      0.48702368914871
  H           1.99290000148305     -1.92194086970912      0.50033482151923
  H           2.68753666164938     -0.65537854829772      1.50902384900622
  H           3.32098925615967     -0.92232874879653     -0.13053473151332
