33
Coordinates from ORCA-job TS E -39.853651905430
  C          -0.57978467905355     -0.06553916922858     -0.59721791181758
  C           0.61563357741640     -2.44812568233722      0.58261113495699
  C          -0.71097559893123     -2.20765692917540      0.57392611062393
  C          -1.30598095889780     -1.08126835011160     -0.04606523296956
  C           0.30724385232808      0.63391506311229      1.28418911824545
  C           1.10534044245761     -0.32849989198046      1.82913395473423
  H          -1.35969856124219     -2.83007687954646      1.17741197953133
  H          -2.37264811371573     -0.96524950537002      0.08585981764442
  C          -1.22024904456841      1.08491152439639     -1.34599006403627
  H           1.01912034121398     -3.26649842151527      1.15600297938119
  H           0.43417584088556     -0.26861394782943     -0.91141304497251
  H           1.28932059272202     -1.99161107981323     -0.11774062931105
  H          -0.63046587098012      0.88813706340018      1.74721968281510
  H           0.78268031559807     -0.91171656276763      2.67675995129158
  H           0.77789856504012      1.38173628345812      0.67184024566729
  C           2.49493542231107     -0.45628047200005      1.39385392380902
  C          -2.43412673027372      1.67502168076627     -0.62414017411845
  C          -0.20809386527246      2.20305340056173     -1.61707141099557
  C          -1.67145918665221      0.50473957727315     -2.69888340710168
  H          -2.16232267449892      2.02270045309767      0.36937852179728
  H          -3.23498052133238      0.94650019382754     -0.53051905577539
  H          -2.81830251549670      2.52279772319373     -1.18736365729270
  H          -0.01668266473230      2.78680084378432     -0.72000941817308
  H          -0.59599191394012      2.88061030627756     -2.37513266911345
  H           0.73484904263688      1.79589792234084     -1.97452207251324
  H          -2.38145133681151     -0.30558963562025     -2.55145701526265
  H          -0.81753746913984      0.11561945017384     -3.24844431386604
  H          -2.14602607858754      1.27735194563050     -3.30001389989987
  O           2.92040209133051      0.07967897748614      0.38752189668199
  C           3.38495578289020     -1.27431906873521      2.30359911611192
  H           2.94646647431987     -2.25006015390085      2.49391744610954
  H           3.48520657603198     -0.75604774983941      3.25595763980200
  H           4.36854886694440     -1.39231890900919      1.85680045801581
