23
Coordinates from ORCA-job NEB_reactant E -56.739926847900
  C           2.03989524755765     -0.53221086915973     -0.01513803212671
  C           1.35278807481809     -1.62942248191471     -0.35885687737155
  C           2.41633353978998      0.61735474321968     -0.87220533465147
  H           2.35890317522224     -0.43998436557181      1.01201595394064
  C           1.03943979201453     -2.64881307129922      0.73229442633659
  C           2.73589859928935     -4.41554423413211     -2.56374622809995
  C           2.83705026947575     -3.11001768539793     -2.37557772114448
  C           1.73047550160245     -2.14848203040462     -2.68394841841713
  O           0.85795478254470     -1.99882579656419     -1.54690023195006
  C           3.79508875863318     -5.40550592623848     -2.20761836545275
  H           1.84888619704483     -4.85518012979125     -2.99845768775023
  H           3.72569286278541     -2.69160818533018     -1.92459733781183
  H           1.06270969176912     -2.54260104370545     -3.45223843829760
  H           2.12941917946749     -1.18360395368505     -3.00237491903051
  Cl          1.14908586117259      1.03967962735060     -2.04699602625581
  Cl          2.69682032357781      2.04575490881030      0.15313060649867
  Cl          3.94884655637509      0.29149468494959     -1.75795058597218
  Cl          2.50554874661174     -3.64510835465782      0.97899021008614
  Cl          0.61305706537670     -1.88452023792525      2.26937631799758
  Cl         -0.28488231693886     -3.70680893300728      0.24275143474269
  F           4.90951102345369     -4.80529931362406     -1.68425866601581
  H           4.12094993411669     -5.96659403363478     -3.09254754046909
  H           3.42602713423976     -6.10845331828624     -1.44974653878517
