21
Coordinates from ORCA-job NEB_product E -41.308740928610
  C           1.46609300376926     -1.29495084142191      1.44578202178878
  C           2.63725151031554     -2.24427722010431      1.11991549801862
  C           1.35201805252968     -0.07135489347671      0.55393658980540
  H           1.66136607276421     -0.93600400646040      2.46525361703150
  C           2.91112412201306     -2.56660256865996     -0.31889436999930
  C           0.11859190907490     -2.06999849758761      1.56270138697089
  C           0.05798288743987     -3.31765403957131      0.72626749444272
  C          -0.77313733012232     -3.48693240481819     -0.28478908193699
  O           3.27982482459364     -2.70631306275551      2.02231737035337
  O          -0.01323259830828     -2.38133794313661      2.93306862179147
  H          -0.69431315462049     -1.39030011291122      1.25843447117918
  H           0.71580562403771     -4.11047440875258      1.05689887470908
  H          -1.43935024681247     -2.70426587540852     -0.60871838658225
  H          -0.81024002558677     -4.40811839795430     -0.84024271985362
  Cl          0.71188373370126     -0.43379456122946     -1.05979289845711
  Cl          0.25173527639852      1.12512377601730      1.29942444805294
  Cl          2.94315973898335      0.71233660158644      0.37439828324365
  H           3.63359002897996     -3.37804513757388     -0.36706137440463
  H           3.33479068280215     -1.69485161313882     -0.81272915102589
  H           2.00052933357289     -2.84362761903907     -0.84165943513773
  H          -0.74257344552567     -2.99935717360338      3.05178874000994
