24
Coordinates from ORCA-job NEB_product E -37.025260264040
  C           1.40851040424774     -1.71923681137424      0.01118015894578
  C           2.45735433370155     -1.57913434517823      1.11976479631835
  C           1.78644541097061     -0.83423493397100     -1.18354467679749
  H           0.45071267502492     -1.34719519822498      0.39301043817379
  C           2.39996917597149     -0.27950940822147      1.89062764461624
  C           1.21927550843208     -3.19345872397916     -0.41026270745122
  C           0.66212339727746     -4.01394051019094      0.72477523346358
  C          -0.52332840963631     -4.59052612932589      0.69147431733983
  O           3.22533037563361     -2.45907952192026      1.39340256876622
  C           2.46146945391905     -3.80014287120086     -0.85119426113385
  H           0.52238197526025     -3.22673681634180     -1.25869824967968
  H           1.31110202132335     -4.10892594339783      1.58328258561396
  H          -0.89242175305909     -5.17044945909350      1.51946800492317
  H          -1.17512429951763     -4.51408013837422     -0.16452975332345
  F           3.06605379009521     -1.06754216006956     -1.60067275065734
  H           1.73293690721202      0.22874917138659     -0.92337749951584
  H           1.13270279926979     -1.03574544010586     -2.04040353824466
  C           1.53536462138348     -0.49531282684348      3.13699970754633
  H           1.98488609944990      0.52784334572292      1.28821336232857
  H           3.41233398668329     -0.01668808656916      2.19945920018933
  H           0.51513554853042     -0.75720204095973      2.86288917443534
  H           1.51053019167762      0.41263839617066      3.73387116355287
  H           1.94743926069946     -1.29820621189194      3.74305522005292
  N           3.39751652544973     -4.33128333604608     -1.23229013946273
