23
Coordinates from ORCA-job P E -39.025313010970
  C          -1.29358779880312      0.16682444340640     -2.55781950772922
  C          -0.18522504835072     -1.78002229742485     -0.95035851561960
  C          -1.56910290062217     -1.98996654944074     -1.48309854340088
  C          -2.09716166028872     -1.06208210886581     -2.26275723031339
  C          -0.71981443760990      0.71536541887580     -1.22934595065669
  C          -0.04958927048508     -0.36311338534367     -0.35811744091293
  H          -2.08757820943838     -2.89759833447978     -1.22273169298505
  H          -3.08295069680143     -1.11616773623282     -2.69038569432455
  O          -2.12042159193525      1.10561028503196     -3.20118182420750
  H           0.05127843812916     -2.52614819744782     -0.19115881113696
  H          -0.44933879897446     -0.09879924205230     -3.22252937136394
  H           0.52778230364722     -1.89621472330599     -1.77468761080697
  H          -1.55311301191437      1.16326744635013     -0.68511065528986
  H          -0.53593740901242     -0.37275144563626      0.62561120157924
  H          -0.01610320237178      1.51673847598997     -1.46368485366403
  C           1.40991531887532     -0.01846223916774     -0.10651556482674
  C          -1.44495332147384      2.17010723310329     -3.82356874944796
  H          -2.18900667119561      2.69240353385518     -4.42162867102271
  H          -0.64402143870121      1.80365735435122     -4.47704697734502
  H          -1.01798564241919      2.86989225190542     -3.09666266313381
  Br          1.56747678740953      1.70211331005158      0.82449068535829
  Br          2.28933114292956     -1.34914173548579      1.02416476148431
  Br          2.42629711940687      0.11219824196264     -1.76781632023404
