16
Coordinates from ORCA-job NEB E -27.719375672190
  C           0.34316912440650      0.45165931763292     -0.28264734915777
  C           0.52653289368544      1.86153289070650     -0.46168331930721
  C          -0.15521377734627     -0.41421691907139     -1.33190901941362
  H           0.82380559475932     -0.16154461143616     -1.84708165396838
  C           0.41459832737894      2.30205074183516     -1.84480113053397
  C           0.71469644160076     -0.20812836070642      1.00427283295280
  C          -0.15109311610144     -1.38113750416510      1.33931438050993
  C          -1.44732728976844     -1.43391040864857      1.07031599840081
  O           0.72494083089764      2.64858678889510      0.45401025178442
  H           1.77184713839025     -0.49513148037654      1.02290799071429
  H           0.60558789932630      0.58844792185170      1.75371955655940
  H           0.34872136689119     -2.22329374667114      1.79638203742493
  H          -1.97804342207531     -0.60092057222171      0.64114027153593
  H          -2.03485798111123     -2.30445659371628      1.30160267763371
  N          -0.91759619384750     -1.25946322692308     -1.67383295439946
  N           0.41023216291383      2.62992576301501     -2.94171057073580
