16
Coordinates from ORCA-job NEB_reactant E -27.811470966860
  C           1.63108292611864      0.04657702317151      0.18433892525866
  C           1.42356206379222      0.99524621500884      1.13046079358148
  C           1.54749679615170     -1.34331151125722      0.32950901507190
  H           1.89899868247575      0.37741979545367     -0.81070194219824
  C           1.58840383701297      2.34973693635585      0.70410016563009
  C           2.50720763318032     -1.32819104690554      4.67454449330676
  C           2.22095416108035     -0.96587748682952      3.43947291957584
  C           0.90594475038557     -0.36492881254645      3.03751114206509
  O           1.06383251879555      0.90363968873301      2.41315840441362
  H           3.45545404406709     -1.76856764590060      4.92810962524177
  H           1.80014847004976     -1.21177775261041      5.47916922109863
  H           2.94143882403992     -1.09096232048952      2.64297364820508
  H           0.29529867688507     -0.15901100296162      3.92014999102468
  H           0.36039809251946     -1.04718179408353      2.37400445491253
  N           1.49994401228620     -2.49019304798538      0.38545501255215
  N           1.72933451115943      3.42038276284692      0.32564413025997
