19
Coordinates from ORCA-job NEB E -33.808329520060
  C           0.90990603862204      0.86812435248673     -0.95974207283758
  C          -0.19221563512116      1.07183327376489     -0.12984617358805
  I           0.54887341387534      0.86838411109907     -3.03320219137228
  H           1.84880684198647      1.33096019819028     -0.69375104463852
  O           0.10375406070678      1.56803449074014      1.10044320678261
  C           1.09221775744484     -1.13185288203732     -0.43099318810377
  C          -0.15256297610996     -1.62724026409474     -0.80502949005751
  C          -1.28687896419297     -1.16041914981680     -0.10386270709251
  O          -1.32153722167044      0.52611080484817     -0.37057304955779
  C           2.25601073208928     -1.50930384658397     -1.14814080545830
  H           1.28549009330473     -0.91154353843084      0.61591593518087
  H          -0.27787663813856     -1.99632604523601     -1.81279389736600
  H          -1.23621320648987     -1.15156085487683      0.97975274514958
  H          -2.25988411021514     -1.43674840652147     -0.48583032851883
  C          -0.93880308167593      1.60730177136817      2.06134963105118
  H          -0.75624293072709      2.48446407300057      2.67930909866866
  H          -0.91426508675884      0.71129748549928      2.68726999306087
  H          -1.91187612550558      1.68501151346316      1.57264745255069
  N           3.20329703857607     -1.79652708686248     -1.72292311385331
