19
Coordinates from ORCA-job NEB_reactant E -33.833255033680
  C           1.32886703737493      0.15867025010905     -0.05707615000120
  C           1.46426468131235     -0.53047959841329      1.07393777870996
  I           0.03662553656805     -0.44654703333000     -1.58493776858579
  H           1.87074392998533      1.06752078874441     -0.23277288075358
  O           2.33180549402192     -0.06509706693697      2.01235717982525
  C           2.98127086730280     -4.38743220534618      1.81213482424475
  C           2.64143473640566     -3.21966926139639      1.26864489449226
  C           1.25606080956179     -2.88288097828574      0.82302702260749
  O           0.76739555900753     -1.66099941246134      1.37742824235808
  C           4.30214779456733     -4.67568352823223      2.20865210656961
  H           2.25852016226318     -5.17674913336038      1.97440820985094
  H           3.38887569050326     -2.44978539689135      1.11715536862143
  H           0.53379203319910     -3.63532168232156      1.14681139218505
  H           1.24155290752321     -2.82750415502595     -0.27555502572357
  C           2.17885948377894     -0.55498129319453      3.33319658028222
  H           2.87572037682213      0.02297672151425      3.93587211209140
  H           2.42878528054406     -1.61771512272383      3.40083330067143
  H           1.15818856075341     -0.40237924023566      3.69115125368424
  N           5.37258905850503     -4.90964265221232      2.54553155887004
