19
Coordinates from ORCA-job NEB_product E -33.867498746670
  C           3.36024650441883     -1.72798102194891      1.38774057735395
  C           2.38431034104596     -1.37463034739248      2.49578449724212
  I           3.48392465906841     -0.17344501715043     -0.09331353206541
  H           4.35901826540405     -1.79066010300440      1.82929665536037
  O           1.98271484977205     -0.11679065649967      2.45241876739481
  C           2.97662953987167     -3.09692715329769      0.80015157197381
  C           1.64661262571666     -3.05485401872577      0.09185745963895
  C           0.55201750083337     -3.60342706340193      0.58070007500900
  O           2.04169985203369     -2.17718609974706      3.32413379666427
  C           4.00536536768510     -3.56031820860828     -0.10423521469118
  H           2.91665508932872     -3.79532895108445      1.64696993182636
  H           1.63945432778974     -2.52780274595915     -0.85295531293313
  H           0.54810844568075     -4.13031995376252      1.52122490927949
  H          -0.38808594444277     -3.54152526301909      0.06024660927027
  C           1.08176388523428      0.30590646659738      3.46749121213643
  H           0.80654276415171      1.32710874192493      3.21841307634150
  H           1.56841402316010      0.26508113652119      4.44365228456225
  H           0.20237275951093     -0.34041709495074      3.48226890083030
  N           4.81583514373675     -3.91088264649091     -0.82844626519417
