23
Coordinates from ORCA-job NEB_product E -57.304577153560
  C           2.25170251641130     -1.07670725199709     -1.92202515042674
  C           0.89995120745402     -1.77415319131990     -1.95059759764687
  C           2.11319469458631      0.21560834034226     -1.09382299676159
  H           3.01256683883786     -1.69345531842874     -1.43709119035996
  C           0.78732229370658     -3.05117292197521     -1.09535024861926
  C           2.67225776010936     -0.74111629256850     -3.37435372871575
  C           3.89871558897318      0.12885392842023     -3.41663061932210
  C           3.91393202213635      1.33532913405284     -3.94830386572405
  O          -0.04872583443121     -1.34464879856735     -2.53219198454777
  C           2.95907401303367     -2.03306953044078     -4.14331151214019
  H           1.83199690573150     -0.24011223931926     -3.86642199593547
  H           4.78526488248708     -0.30414883562360     -2.97523820423697
  H           3.03066304719167      1.78050058246821     -4.37527338101399
  H           4.80877810569791      1.93178211681395     -3.96054023824017
  F           3.33374819356873      0.69108362428868     -0.76150961544599
  F           1.49865799146286      1.19041038002423     -1.79028223294349
  H           1.55365558659424      0.05839123458158     -0.15901131859523
  Cl          2.15549438287706     -4.15169028363868     -1.29336605688418
  Cl          0.75745336708953     -2.45373710801318      0.59349080582102
  Cl         -0.72001360267214     -3.89422114389953     -1.44604375915625
  F           3.95602550499831     -2.73792505638157     -3.55887669961507
  F           1.88072899838963     -2.85460220240318     -4.15699209583741
  H           3.24895553576619     -1.83979916641541     -5.18695631365251
