22
Coordinates from ORCA-job NEB E -44.374036112000
  C           0.35636726795367     -0.98422018562125     -0.55642321607569
  C          -0.96109563114948     -0.89618264461544     -1.05711519054641
  C           0.52998258399926     -1.74175608099743      0.62762024820743
  H           1.17940058489087     -1.07400253414935     -1.25977445227120
  C          -1.16290720463062     -0.78029734178602     -2.55754316895682
  C           0.61967968634816      0.88085282980909      0.19616744516333
  C          -0.49823171413370      0.91892665514122      1.05617949614648
  C          -1.77299369681325      0.97731113917443      0.52568124491341
  O          -1.94956131998775     -0.68804847565514     -0.31425492926970
  O           1.90091274151618      0.92650197889588      0.58372771303577
  H           0.53328568665953      1.37780953086658     -0.76779905510315
  H          -0.37827693980956      0.58172082503144      2.07501744847758
  H          -1.95189309019205      1.52429913117493     -0.38912602383244
  H          -2.62110621568328      0.90931256005911      1.18720606245026
  N           0.66416092272158     -2.40249666906637      1.55315406287319
  Br         -0.50879843654307     -2.40212139212281     -3.43790189200315
  Br         -3.04311781666716     -0.54804456293179     -2.93935335809536
  Br         -0.18261066184012      0.75086788932446     -3.33076687133048
  C           2.23074256548222      0.70404435950022      1.94654900940888
  H           1.79787085127109      1.48387461461784      2.57851168342933
  H           3.31630769249792      0.75943821348450      1.99103965287487
  H           1.90188214410955     -0.27778984013414      2.28920409050386
