22
Coordinates from ORCA-job NEB_reactant E -44.408883110320
  C           2.17614687156342      0.35610353605469     -0.12293866845427
  C           1.54943485399980      1.37125012082310     -0.73986458629594
  C           2.34405189783172      0.18570742722517      1.25908621328175
  H           2.61637881497752     -0.44005355322232     -0.70702879751024
  C           1.39684760637243      1.44315166875361     -2.23251329821017
  C           3.24843797535444      3.48643093205911      1.05511454640044
  C           2.25041052204291      2.96493608543870      1.76128566572484
  C           0.90212593042293      2.66537218263773      1.17501503563031
  O           0.92400548992872      2.43820150483774     -0.22763598519546
  O           4.49926141273451      3.76429444735489      1.46249126879376
  H           3.13858244125401      3.74789504190359      0.00975034169460
  H           2.35233603600102      2.70990964527519      2.80253205319706
  H           0.22409700113106      3.51973413613282      1.28207906228394
  H           0.45581485131650      1.80178792801769      1.68186577840114
  N           2.52525133776316     -0.03963840315437      2.37004941597436
  Br          2.41298232191284      0.14908587040093     -3.23774132592110
  Br         -0.50945710697756      1.19370697200226     -2.65586334976647
  Br          1.92158454005365      3.22626322829618     -2.83574844507996
  C           4.83290581436617      3.46974529027932      2.80172853681675
  H           5.88423211140309      3.72814369390818      2.91061956873994
  H           4.68871424442943      2.40724075100086      3.01841009761180
  H           4.23435503211824      4.06553149397494      3.49690687188293
