24
Coordinates from ORCA-job P E -36.130902379340
  C          -1.47291992202602      0.42490054010003     -2.34428869827323
  C          -0.11809687815207     -1.60440521408365     -1.10962705609185
  C          -1.46964588983181     -1.89609492254558     -1.67010861634147
  C          -2.12360034120062     -0.92602261364007     -2.28976154864679
  C          -1.00639976861355      0.79657804025854     -0.92785207669218
  C          -0.11354278799339     -0.28573813842771     -0.28857193370504
  H          -1.87479803243364     -2.89013327654622     -1.56752148511769
  H          -3.09685903306820     -1.05571218174294     -2.73429076292644
  C          -2.42544581154965      1.48125561136739     -2.88306543111369
  H           0.24011576064792     -2.42334262408046     -0.48447156514438
  H          -0.60607475272829      0.39175018502441     -3.01642272768881
  H           0.57987740574148     -1.48751010685655     -1.94399446590181
  H          -1.89486631402725      0.93807773841705     -0.31023535554281
  H          -0.52592533313037     -0.51800395477774      0.69986725828450
  H          -0.46366268322610      1.74112875274838     -0.94192649214226
  N           1.21416751569348      0.24628530541219     -0.02783653824567
  F          -1.81630207933590      2.69211418959328     -2.96179663242251
  F          -2.81970931913297      1.18411312477307     -4.14699596406003
  H          -3.33246383142133      1.60464726412235     -2.27075185939763
  C           2.04186870449220      0.57614278809811     -1.17097003870116
  H           1.72134609225236     -0.38599223043729      0.58212639519823
  H           1.50305247219877      1.25427882539365     -1.82973784028044
  H           2.37393713612332     -0.29106605798448     -1.75987132051902
  H           2.92805769072161      1.09272895581421     -0.80393524452780
