19
Coordinates from ORCA-job NEB_reactant E -37.183406143010
  C           2.11366853993978     -0.47814664595240     -0.16819113159252
  C           1.55171902043766     -1.67975206669801      0.11719258599508
  N           1.97674130234372      0.26570091557769     -1.36584057515129
  H           2.75483615645978     -0.00944749295584      0.56332488897995
  C           1.73651274581406     -2.13448154246666      1.46445589054370
  C           3.39033261613545     -2.91143925821912     -2.14426567736187
  C           2.30515158085425     -2.30178659529616     -2.63035487067706
  C           0.93365311414169     -2.49573966521977     -2.05997898597208
  O           0.91581110553846     -2.56719813891121     -0.63103511525583
  N           4.67113163396528     -2.67211505143798     -2.55523074033259
  H           3.30930922675947     -3.59940466208035     -1.31114844635470
  H           2.38905910780931     -1.61484920607676     -3.45816080449470
  H           0.49444576039118     -3.45505303074371     -2.35442059134710
  H           0.27798739771259     -1.68461212817228     -2.39980505557469
  O           2.93390966898461      0.92618366360512     -1.71749199419259
  O           0.89740830669963      0.25291958375160     -1.93345151627790
  N           1.88341400006055     -2.48483123269878      2.54322763715837
  H           4.78145082702475     -2.14712720670109     -3.40790652908865
  H           5.36175788892779     -3.38302023930431     -2.38921896900354
