19
Coordinates from ORCA-job NEB_product E -37.166410492610
  C           2.85662528417648     -1.02481906250514     -0.61938477621366
  C           1.46267269443740     -1.09824002515645     -0.00645420401800
  N           3.02025028972744      0.28910940101215     -1.30244865817907
  H           3.60913771081218     -1.05515462331708      0.17699137317923
  C           1.32240624811440     -2.28415869830021      0.82586727669546
  C           3.05855535239092     -2.23761897428515     -1.58027336549838
  C           1.83047435283751     -2.44582403986287     -2.43490503628379
  C           1.03155416192121     -3.48924920423811     -2.31468435744182
  O           0.58157245820937     -0.30728797443523     -0.18117311774602
  N           4.28498009461276     -2.02279860511047     -2.32238649598966
  H           3.20331609356826     -3.11619937048023     -0.93901896062782
  H           1.65046367360161     -1.68154724836691     -3.17789725519605
  H           1.20136374233232     -4.25845255730288     -1.57791827788592
  H           0.16980957922248     -3.61554806528718     -2.94667221421184
  O           3.46672503205988      1.17446853136125     -0.62233971432379
  O           2.69244039190815      0.37595723580171     -2.45570115252696
  N           1.21608114302944     -3.21499652110210      1.48152237627367
  H           4.13995575394473     -1.34814028264155     -3.06739775817786
  H           4.61041594309348     -2.88549991578354     -2.73862568182773
