21
Coordinates from ORCA-job NEB_reactant E -33.866686841510
  C           1.85271206343871      0.35781603538044      0.42635950679370
  C           1.48724626598370      1.29985462169252     -0.46463405449365
  C           2.14738599426269      0.50019004746885      1.78540568158034
  H           1.92278778241457     -0.66427438982554      0.07956837072789
  C           1.19119393003553      0.93626552906636     -1.88973853202423
  C           3.87269417151972      3.20071500083064      2.19004408107518
  C           3.20727298273339      3.33937412090623      1.05716258078744
  C           1.71559412489747      3.24195340986149      0.93546419675878
  O           1.32241078498754      2.61953675533231     -0.27720522242831
  C           5.35599677059053      3.30967071131065      2.31781622388616
  H           3.36761188988866      2.97631099166462      3.11808473922992
  H           3.72756457356206      3.55078948426356      0.13269142953050
  H           1.28572923205283      4.24795744623848      0.86300863777586
  H           1.27957905906409      2.73197456394710      1.80022496897866
  N           2.39181644453316      0.52745411399297      2.90933058786737
  H           2.04972201924991      1.18321655246476     -2.51384006197778
  H           0.34556297261240      1.52138747974548     -2.24346600372017
  H           0.97461881190735     -0.12210102207390     -1.99271874027072
  F           5.96306969242048      3.59270276065660      1.11976867912244
  H           5.77992248806633      2.36304560120721      2.67485983123229
  H           5.63270794577887      4.11416018586918      3.01071309956835
