21
Coordinates from ORCA-job NEB_product E -33.868477101600
  C           3.12536298646190      1.75107891140134      0.03778112711687
  C           1.80284887647811      2.08895689279471     -0.67814255740327
  C           3.17313918256929      0.36356914119062      0.43044829774810
  H           3.91761836048574      1.91178386735869     -0.70827515228235
  C           1.20981266237924      0.96349201781309     -1.47009283276892
  C           3.35504520725699      2.70235918672680      1.23699221384070
  C           2.54126258800047      2.25535777682993      2.42022813347769
  C           1.46177945024168      2.88495570751430      2.84076710273924
  O           1.32261429264299      3.18691500098802     -0.60742058220293
  C           4.83795241373505      2.79691329873944      1.59601803111712
  H           3.02500754314740      3.69878660893838      0.92283535981315
  H           2.89597049409397      1.35782147430187      2.90897960652104
  H           1.09688948414510      3.77262210908117      2.35023358919887
  H           0.89430063275942      2.53364949767817      3.68503021348763
  N           3.19469889727700     -0.73941973316725      0.72819031719012
  H           1.96883296849925      0.46403096917075     -2.06812241711974
  H           0.41036430344495      1.33436082872585     -2.10658121021539
  H           0.80172681997415      0.22833899086712     -0.77659947820132
  F           5.35756917482547      1.56631875959809      1.90708376444144
  H           4.97908573578351      3.43249921606670      2.47627993160123
  H           5.42971792579832      3.18420947738222      0.75836654190072
