20
Coordinates from ORCA-job NEB_reactant E -37.232045642250
  C           1.87502298898709     -0.11125600388961      0.03780266807278
  C           1.47925189521648     -1.38184491949322     -0.01281988707772
  C           1.93372897167283      0.79973299593133     -1.13785292550843
  H           2.16501594337654      0.30669973917767      0.98993825983551
  C           1.43520055023399     -2.22709874320773      1.24466079105921
  C           3.91949600210284     -3.99867284862903     -1.19291571934121
  C           2.65645928630644     -3.81441958433862     -1.52662008626274
  C           2.10590075445746     -2.50596823409778     -2.00819485348265
  O           1.06724919742907     -1.99919904053844     -1.15973730409460
  H           4.28324496725958     -4.95049933145175     -0.84683552928958
  H           4.64568264531723     -3.20428064987395     -1.25769406476309
  H           1.93384959388967     -4.61394836732418     -1.44735691764823
  H           1.61491358299198     -2.63933719720967     -2.97716194145368
  H           2.90833730434103     -1.76520767879204     -2.10271306707684
  H           1.47452962876153      0.34150367473012     -2.00917350059673
  H           2.96931870675231      1.05334748993407     -1.36501797438612
  H           1.41238081844852      1.72669601191390     -0.90577004324567
  Cl          3.10267241312111     -2.66013998346523      1.74306209663166
  Cl          0.69573880216474     -1.33237510015032      2.59202811848339
  Cl          0.51900594716954     -3.71373222922553      1.00337188014476
