20
Coordinates from ORCA-job NEB_product E -37.247789323250
  C           2.46405033446922     -1.31591611717042     -0.09433727614028
  C           1.20229459034651     -1.96625138762916      0.40396728892604
  C           2.10465062950973     -0.12174916138643     -0.97916886920058
  H           3.06640928537309     -0.98190734181834      0.75351187808332
  C           1.17355605824450     -2.24708682717501      1.92618027151009
  C           3.28840647856389     -2.35976359491323     -0.88832364172857
  C           2.60768777694271     -2.81841004932681     -2.13852705407350
  C           3.12581917927732     -2.69305378658150     -3.34570658729128
  O           0.25378524902478     -2.25040504178439     -0.26596870330166
  H           3.47931031655026     -3.22123069384774     -0.24279320020661
  H           4.24773518867652     -1.90303415331321     -1.13769519705978
  H           1.63714099160242     -3.27494303042663     -2.00380791379496
  H           2.61357879813638     -3.04529466965592     -4.22420230693007
  H           4.09149425887046     -2.24129173373129     -3.50686454836590
  H           1.44328932605134     -0.43749815570335     -1.78123758230253
  H           3.00728733234973      0.29880192961954     -1.41374663282792
  H           1.60550452963771      0.64649862879016     -0.39371951063592
  Cl          2.63000060273626     -3.11016417551262      2.44957504041708
  Cl          1.11520514211713     -0.65507704915457      2.72591401653013
  Cl         -0.25550606847993     -3.18262358927909      2.37555052839291
