19
Coordinates from ORCA-job NEB_product E -33.822494494920
  C           1.44875710382053      1.17474599189475      1.61164245901730
  C           1.24541845040144      1.28097533725112      0.11818618039896
  C           0.89580288271500     -0.16827489947175      2.09446770398142
  H           2.53444853797095      1.15009872512359      1.77942711457175
  H           1.31216180493257      2.31843578111026     -0.25877828787362
  C           0.93872778570378      2.42332261472916      2.37865628962505
  C          -0.54346100148183      2.37044142003393      2.64562092596679
  C          -1.43956640754494      3.05203930835248      1.95838636615517
  O           1.05630554269116      0.35748553966919     -0.61723478947015
  N           1.74725084808220      2.57457433152873      3.58115178616289
  H           1.15494970224536      3.29458906078345      1.74582492671942
  H          -0.84393135602910      1.74500078947746      3.47572371363527
  H          -1.16144243744801      3.68328560233140      1.12976699070041
  H          -2.48944888665517      3.00123601780100      2.18804368000732
  F           1.12414955314775     -0.35383378563826      3.41873518285193
  F          -0.44252569045984     -0.25984789468231      1.93304650568406
  H           1.35201720617937     -1.00997960838142      1.55132594142438
  H           1.57802146994283      1.80657877387654      4.22285852592259
  H           1.50166489178595      3.43402689421068      4.05934878451906
