20
Coordinates from ORCA-job NEB_product E -41.098817617760
  C           2.16592579261419     -1.14525200194528     -2.28186932696594
  C           0.91540742476219     -1.94654141302952     -2.12601752757876
  I           1.77072471025800      0.43800715040512     -0.83981880874738
  H           3.04462823151231     -1.67110617550546     -1.90745927462473
  C           1.03741962601604     -3.08577489664963     -1.07437522619909
  C           2.37480723093605     -0.60623265240949     -3.69396546520190
  C           3.51450464770992      0.36924179527501     -3.72189007847718
  C           3.39263953270781      1.63736052893140     -4.06400270050787
  O          -0.10243826336228     -1.80348895405255     -2.73879066013470
  C           2.66634882927407     -1.79093154630601     -4.62119026576502
  H           1.45428869253553     -0.11132260463082     -4.01934325959384
  H           4.47600914574051     -0.03896611862797     -3.43856572327389
  H           2.44320361702735      2.05979782010242     -4.34907976565502
  H           4.23495625357064      2.30670417453661     -4.07224400655927
  F          -0.14160103380201     -3.52277046914638     -0.65199078902648
  F           1.68010449626499     -4.12172238866931     -1.64679945227766
  F           1.75812104829884     -2.74243127156829      0.00057156707735
  H           1.82970091567631     -2.48551493568832     -4.63919546179959
  H           3.55728223998763     -2.32533420441552     -4.29644692421943
  H           2.83266686227190     -1.42652183660602     -5.63162685046960
