30
Coordinates from ORCA-job P E -34.011350426100
  C          -1.19003016668022      0.31163159555215     -2.37259155235053
  C          -0.49883183637911     -1.54962473548001     -0.12244412492499
  C          -1.56396183373941     -1.82366710936221     -1.13533836926831
  C          -1.87331645408294     -1.00101977433494     -2.12231225958438
  C          -0.43005062514471      0.74218708386169     -1.11334633211324
  C           0.41758152549672     -0.41075280469350     -0.57019413030786
  H          -2.09141901412940     -2.76130305917349     -1.01892377831095
  H          -2.63685316179973     -1.29248340568570     -2.82846601606013
  C          -2.16866471386256      1.39234951114510     -2.90633233808536
  H          -0.96404347530299     -1.28721279444837      0.83371503481979
  H          -0.44114888722330      0.13581674332731     -3.15568208710002
  H           0.08987267792257     -2.45608508410265      0.04389798970668
  H          -1.12933667957096      1.04869574738936     -0.33493667231661
  H           0.97692129702083     -0.04306484230548      0.31495257727375
  H           0.22571475900585      1.58377998764976     -1.33981431213309
  N           1.31149494780256     -0.88551738604806     -1.61688533772815
  C          -3.39007334832556      1.52898586025226     -1.99373687873721
  C          -1.46622400557976      2.75128764103756     -3.00691759376333
  C          -2.63527309031047      1.00906633995567     -4.31606631750434
  H          -3.09962317328109      1.85974456470952     -0.99974082603587
  H          -3.91014474902910      0.57940668255992     -1.89797032128594
  H          -4.08250549821000      2.26185878901021     -2.40318167805918
  H          -1.24756742257554      3.15898097789098     -2.02388520579388
  H          -2.10706764047210      3.46151015543324     -3.52594819745850
  H          -0.53664076915320      2.66351259260497     -3.56538879981762
  H          -3.19379620732195      0.07763079725665     -4.31542215413319
  H          -1.78304367945565      0.89654364631283     -4.98287778395684
  H          -3.28391660723360      1.78441503596474     -4.71909484404431
  H           1.93600588504446     -0.14153230765337     -1.90916638130041
  H           1.87803194657038     -1.65556044862613     -1.27923130962598
