30
Coordinates from ORCA-job R E -33.931813602810
  C          -1.58631083482185     -0.20474641015928     -2.83449408646208
  C          -0.08346499560734     -2.69813516253052     -2.00389595427645
  C          -1.22149685806223     -2.24738235491485     -1.48379913214921
  C          -1.87304330019982     -0.98521927533760     -1.79476070147805
  C          -0.41943758580159      1.95335350175387      0.55528813132879
  C          -0.09737974780617      0.67130748106467      0.43080923899244
  H          -1.72299410415151     -2.84533874438287     -0.73262619643260
  H          -2.64745809731609     -0.69547006678858     -1.09949702039586
  C          -2.22952440239638      1.10589145268581     -3.19060980714772
  H           0.34109524314828     -3.64013889155499     -1.70182630051589
  H          -0.83260612788806     -0.52861451823151     -3.54217490992368
  H           0.47172595262768     -2.14474109960600     -2.74398852463618
  H          -1.19766711965707      2.27690159744287      1.21985563875350
  H          -0.62675476065937     -0.09096333013671      0.98644643155571
  H           0.10890487342269      2.72144479195421      0.01587945736959
  N           0.96123487899623      0.18515102256055     -0.31055987342766
  C          -3.17679132075007      1.61448495235641     -2.10556461538967
  C          -1.11979265032401      2.14389951977057     -3.40765510727335
  C          -3.00140564204673      0.91005193037515     -4.50385322127392
  H          -2.64970244802797      1.70323519433528     -1.15776475945576
  H          -4.02423568925598      0.94453473231103     -1.98031935893814
  H          -3.56165998387255      2.59476086759604     -2.37890431893968
  H          -0.61684555686282      2.36048562869290     -2.46787516363675
  H          -1.54152072259098      3.07168406625490     -3.78844572351131
  H          -0.38476090232712      1.78281742074931     -4.12425056521291
  H          -3.77307460081317      0.15342196529747     -4.37977040457081
  H          -2.33223508924016      0.59025739643543     -5.29979212301595
  H          -3.47386329619848      1.84248614068676     -4.80504701595450
  H           1.33255966729533      0.84327566098090     -0.98035357463951
  H           0.83769522118732     -0.74210546966122     -0.68755043934245
