21
Coordinates from ORCA-job NEB E -43.163949419110
  C           0.43902265941220      1.44570952595959      0.05850305968992
  C          -0.63930846028629      0.91677092735086      0.78102115682508
  I          -0.08125305818515      2.80015331706067     -1.47018666752408
  H           1.30332018504928      1.76211921643132      0.62559760503810
  O          -0.34315280799414      0.52460036554980      2.04062514220857
  C           0.92368095021365     -0.33401144304681     -0.82197143399750
  C          -0.26022084533199     -0.65490509232318     -1.48049741871528
  C          -1.41145551373400     -0.90126426874136     -0.69849929777240
  O          -1.69716870994431      0.51988011526548      0.18788195385232
  C           2.20051095382149     -0.21889410075078     -1.59002042468551
  H           1.10935861710631     -0.81071759180477      0.14046119146269
  H          -0.39739864650144     -0.32741021467905     -2.50104512029870
  H          -1.30730409556112     -1.58830146311383      0.13440016496161
  H          -2.35055419574432     -1.00309044102255     -1.22425796668224
  C          -1.32571829239854     -0.20386055170712      2.76168906613320
  H          -1.27789930407651      0.14256921511574      3.79261447800816
  H          -1.09862014359736     -1.27215607385855      2.72702680316427
  H          -2.31971153430728     -0.02443294433839      2.34814540828647
  Br          2.90374842843692     -2.06956260458422     -1.79475191992230
  Br          2.04601210424325      0.51389270264883     -3.37371520548495
  Br          3.58411170937934      0.78291140458830     -0.64302057454742
