27
Coordinates from ORCA-job P E -43.533078591970
  C          -1.19533772658254      0.29000733506497     -2.52681659220990
  C           0.14380154919652     -1.69007082137749     -1.14509974475456
  C          -1.09905846415128     -2.05807735940765     -1.89175910469921
  C          -1.74792353197205     -1.10845763679898     -2.54519177819097
  C          -0.81203150963951      0.69463669047456     -1.08367563572168
  C          -0.13294607385726     -0.43788336846703     -0.29228174486375
  H          -1.43256707214009     -3.08328758350127     -1.86889747388608
  H          -2.64903534051222     -1.30428174260367     -3.10270493455734
  N          -2.03505148145979      1.32651643464465     -3.10718640699632
  H           0.48353022913212     -2.50522196201168     -0.50613690900795
  H          -0.26331633289718      0.28375836568904     -3.10853845879363
  H           0.94312962085345     -1.45826047922890     -1.85669669330803
  H          -1.71096313512877      1.01218064293376     -0.55810059314398
  H          -0.76034855444897     -0.73106572270721      0.55525375288090
  H          -0.15566139811900      1.56311854936170     -1.14675045634166
  C           1.17307830074568      0.05747524856794      0.30650229358816
  C          -1.90812441392460      1.43063523045448     -4.54415877922379
  C          -3.42773013768300      1.28885474817469     -2.71007531026296
  H          -0.86234457005648      1.58327309463185     -4.80679029118122
  H          -2.47724840368625      2.29622793839648     -4.88110704054766
  H          -2.27977993990685      0.54262387234629     -5.07912860133198
  H          -3.51166857218152      1.06321059377376     -1.65008615430352
  H          -4.01960025342727      0.54991969460380     -3.27005025665343
  H          -3.86281592875866      2.27298227110001     -2.88816912288081
  F           1.78526156010561     -0.88320464784990      1.04637562345292
  F           2.06122207859548      0.44066415553128     -0.62340656284665
  F           0.99747950190444      1.11316645820452      1.11848697578512
