18
Coordinates from ORCA-job NEB E -36.228315137490
  C           0.57258724549749     -0.62096577244033      1.02494369445018
  C           0.10883369313165     -1.27481317048301     -0.18726176947060
  N          -0.15027979191862     -1.13806807956879      2.01384127263001
  H           1.25534387511425      0.19863152629009      1.10916320279207
  N           0.51975302034601     -2.50023543331982     -0.51316118695191
  C           0.35598585767932      2.64523005439250     -0.28367108588985
  C           0.07304633695206      1.69066571036948     -1.15333708083603
  C          -1.00255529185332      0.67205358537128     -0.92955926427671
  O          -0.52999502664598     -0.65753067419774     -1.15998571721033
  Br          1.69203939003480      3.93618050413190     -0.59666253315027
  H          -0.15487143130321      2.77379700531807      0.65815869200649
  H           0.61751328695733      1.60040345503133     -2.08254354460805
  H          -1.80234316780867      0.80516844392092     -1.66478911653714
  H          -1.41569524575926      0.74862096413535      0.08102804278338
  O          -0.01971093176410     -0.93666228321777      3.20734302681797
  O          -1.07251727415831     -1.89226436110675      1.52366782607745
  H           0.04309071406923     -2.97568879093993     -1.26591530977413
  H           0.90977474142933     -3.07452268368678      0.21874085114746
