21
Coordinates from ORCA-job R E -29.582547125890
  C          -1.21541697657578     -0.37157072932864     -3.21150919606542
  C          -0.31531804403527     -3.02667830876329     -2.08984633912162
  C          -1.54796996299677     -2.52725814007794     -2.05345605902062
  C          -1.95307095372978     -1.20186671280967     -2.46710315601794
  C          -1.38884829660879      1.05368464779249      0.27430226557732
  C          -0.34949695456217      0.30700794101264     -0.08013049868525
  H          -2.34776304976119     -3.14184052266349     -1.65878097161196
  H          -2.93184865796924     -0.86768569257741     -2.15346004457998
  O          -1.64919278578571      0.86812185128203     -3.53631595261356
  H          -0.10786115036500     -4.03035430445017     -1.76094345724920
  H          -0.24050081370256     -0.65306709359033     -3.59126387025352
  H           0.52747419802841     -2.45767968929204     -2.44302816472609
  H          -2.11383682453521      0.70322611434749      0.98903981928803
  H          -0.17829351987534     -0.68382268142957      0.31909833860397
  H          -1.54908841129069      2.03355744624638     -0.14419578395784
  C           0.60438146142372      0.74716111904092     -1.01900619564781
  C          -0.76881289492790      1.63506183661150     -4.32944136419393
  H          -1.24706452910854      2.60279248542866     -4.46856867470858
  H          -0.60743783404858      1.16573965325020     -5.30527054391311
  H           0.19435742469087      1.76824179396506     -3.82716555997029
  N           1.38448857573551      1.10445898600517     -1.78050459113259
