21
Coordinates from ORCA-job TS E -29.571080975610
  C          -0.60420510962185      0.11699281463590     -0.91902441100610
  C           0.66672311222833     -2.07327449776117      0.47649953272925
  C          -0.66227926714900     -2.04184287745402      0.20519607914936
  C          -1.28597503159766     -0.99353105850915     -0.49641669402487
  C          -0.03232035521722      0.84858278316028      1.11700231995882
  C           0.65296578319933     -0.11870482078167      1.79908412426713
  H          -1.31174564250624     -2.76386575941203      0.68160647431259
  H          -2.36451454610674     -0.95960582870142     -0.53443823072612
  O          -1.29397294098732      1.13755518770158     -1.48201224943636
  H           1.07695053891051     -2.83881173895885      1.11426063706104
  H           0.45547878286361      0.07739821919392     -1.14129750827956
  H           1.38569777507829     -1.54557217582534     -0.12344897804011
  H          -1.06088280734766      1.05326860447031      1.35654879190870
  H           0.16826517519633     -0.72762793627486      2.54721940296795
  H           0.51611656128842      1.63897698462546      0.63188448741249
  C           2.05901065420184     -0.13545659969378      1.80231810104687
  C          -0.53113087485431      2.15336560231973     -2.09006625762656
  H          -1.23988253773684      2.81538395716904     -2.58379910815284
  H           0.16203441878771      1.74358615590720     -2.83138536356721
  H           0.03665128012907      2.72490970273790     -1.34809910580172
  N           3.20701503124142     -0.11172671854903      1.81836795584726
