20
Coordinates from ORCA-job NEB E -45.327683744570
  C           0.81201531117544      0.70831660649994      0.32291891491653
  C          -0.40738809213437      0.77568704937000      1.04495027913373
  C           1.03726461167826      1.71665911340190     -0.66566222613995
  H           1.70780287413805      0.47476671195020      0.89719617110238
  C          -0.45954348341300      0.13503010471130      2.42433256437596
  C           0.47405138088501     -0.80315396207461     -0.74990017392161
  C          -0.72342136133511     -0.48595906818913     -1.40626921085237
  C          -1.88452540731651     -0.28994874926581     -0.61837017164787
  O          -1.52108311901756      0.94274906698702      0.41702864800522
  N           1.68938488527549     -0.90910762038078     -1.57282946788706
  H           0.49193344162429     -1.55142959936287      0.03877579896400
  H          -0.64490510353868     -0.01078373124891     -2.37491798361345
  H          -2.12179170880945     -1.06267295576437      0.10749413326942
  H          -2.75823235711301      0.09402948602343     -1.12915362683488
  N           1.21133570246625      2.53885977814205     -1.43882815600555
  F          -0.50588372287348     -1.22826486498582      2.29996420554063
  F           0.65243942341787      0.40605930119551      3.13515041471911
  H          -1.34327256615537      0.44823001110382      2.99745897947538
  O           1.63733059364740     -0.53016268749174     -2.71244091454227
  O           2.65648869739847     -1.36890399062115     -1.01689817805735
