20
Coordinates from ORCA-job NEB_product E -45.361603061280
  C           2.55440328054796     -1.84139731904808     -0.57883911153737
  C           1.52776238321897     -2.14557119294873      0.50385366165231
  C           2.49234897093354     -0.43820643725841     -0.93264436086311
  H           3.55710483760612     -2.03232195349995     -0.15653598189754
  C           1.59631952921180     -1.18180899959423      1.70453819218635
  C           2.35267664338033     -2.75568783701236     -1.80061416403888
  C           1.33545864062969     -2.24432703958030     -2.77654817253866
  C           0.16120658689007     -2.81813883800105     -2.95546787220426
  O           0.72748309391196     -3.02878423740601      0.44102530434907
  N           3.67061484600607     -2.96626373043311     -2.49238635329794
  H           2.04655732937418     -3.74489652793157     -1.43257379916783
  H           1.62174542798848     -1.35900007918081     -3.32674034533036
  H          -0.13353734319321     -3.69847950263888     -2.40842170335684
  H          -0.55567923759528     -2.42176892722573     -3.65191700479940
  N           2.42167379362508      0.66278086767531     -1.22333260415181
  F           1.19412590031672     -1.79735829990790      2.82872342126569
  F           2.86000855022186     -0.75022299414795      1.91171132556257
  H           0.95241089116705     -0.30054738986615      1.53469038053723
  O           4.66012594776896     -2.94593112018709     -1.80308181673525
  O           3.63238992798967     -3.16986844180701     -3.67423899563396
