15
Coordinates from ORCA-job NEB E -29.847623452170
  C           0.64721363249038      0.68218756545622      0.37605198662705
  C           0.15347193595655      0.87023438044481      1.66215247950293
  C           0.51913490877387      1.69199970425327     -0.62164377880435
  H           1.86027382482605      1.40445459885900      0.93565668578393
  I           1.73964228217370      2.84309613544012      2.22001209241272
  C           0.39554310190483     -0.73066063229049     -0.16030253749070
  C          -0.82585992789472     -0.84136363420090     -0.99764641997426
  C          -1.79261432081190     -1.70602400633209     -0.74508633129794
  O          -0.35048529964702      0.39477908426035      2.59399725913806
  I           2.16042640178261     -1.30411349735045     -1.34522011810093
  H           0.37482585545785     -1.44268668381815      0.66578089174626
  H          -0.88521077417017     -0.15962280945219     -1.83535018209575
  H          -1.74184083240611     -2.39410019622727      0.08335450108080
  H          -2.67434719880377     -1.75752323616910     -1.35885143160456
  N           0.41982641036786      2.44934322712688     -1.47290509692327
