15
Coordinates from ORCA-job NEB_product E -29.920240830860
  C           2.02483687881634     -1.55283055107117     -0.02788396189325
  C           3.08022098317803     -1.61353411563594      1.05092130698119
  C           2.43446474849819     -0.61699964438350     -1.05725349254440
  H           1.10322064689107     -1.15733497947888      0.42630066342492
  I           3.38346503003384      0.29951578446538      2.01234144963543
  C           1.72540205735342     -2.93913432331938     -0.61565874393637
  C           0.56672613955457     -2.89510319021874     -1.54800439668245
  C          -0.47317530045830     -3.70354936855935     -1.44933038381901
  O           3.68904586147229     -2.56249749940636      1.39376793812459
  I           3.46990707866692     -3.71678772240139     -1.68629502709687
  H           1.55714625872303     -3.64882438426829      0.19601706059009
  H           0.63161221093443     -2.15683291177024     -2.33676554635616
  H          -0.54238131998069     -4.45158210461441     -0.67613060968883
  H          -1.29444397426600     -3.65093883021355     -2.14171320247926
  N           2.75325270058289      0.09713384087582     -1.88741305425961
