15
Coordinates from ORCA-job NEB_reactant E -29.910868142340
  C           1.78924761006631     -0.17980484345305      0.05112199463978
  C           1.63168804808466     -1.18930517967191      0.91814670362098
  C           1.41797772982501     -0.18207391089434     -1.30100392900746
  H           2.24321753893850      0.74060799907845      0.38780232014252
  I           2.27500188590183     -0.95675557780915      2.91882222654993
  C           2.07756126760747     -4.63893082622891     -1.46215412407728
  C           1.78595251664675     -3.36059871616260     -1.31477508316948
  C           0.64398904837212     -2.89988597989777     -0.45669248858888
  O           1.10259508974443     -2.39944406625572      0.80013769130932
  I           3.67499598654570     -5.32310018201475     -2.63280653726046
  H           1.51112694241596     -5.43222524835689     -1.00278494101034
  H           2.37453486943069     -2.58902087310759     -1.78929155217472
  H          -0.00046822608745     -3.74009529348909     -0.18654562697416
  H           0.05651011008181     -2.13647664668259     -0.97653629027986
  N           1.14236958242621     -0.13459065505408     -2.41514036371993
