23
Coordinates from ORCA-job NEB_product E -51.738170867160
  C           2.36808861806595      0.67856534063818      0.81555130848333
  C           1.43957143386492      1.35044104607796     -0.14244413588912
  C           1.61070644821525     -0.21326431999850      1.79704656781719
  H           3.06267920467087      0.03797613309687      0.25467327747517
  N           2.06155124486357      1.47837960731927     -1.57130432148157
  C           3.27498746336402      1.79076681393807      1.44861795466510
  C           2.59565482168827      2.55132364750486      2.55348430640406
  C           1.99311468484614      3.71170179103928      2.37486108829505
  O           0.37721468727740      1.84221670921910      0.01028507796039
  O           4.44811820327965      1.14337700036824      1.87101756069641
  H           3.52344611884941      2.49441149628560      0.63077994501463
  H           2.66308344457006      2.08809883866450      3.52686152373297
  H           1.92968672837526      4.18182654668113      1.40687543880414
  H           1.52189407637666      4.23240975641569      3.18936509733754
  Cl          0.34033254845790      0.63277976714603      2.69281232894754
  Cl          0.82285046661353     -1.50583961332994      0.83169797808578
  Cl          2.72193789203220     -0.97137424868459      2.94351220970575
  O           1.45788046840250      2.19432281588913     -2.31835828163586
  O           3.07751429616945      0.86921903727761     -1.79319523289048
  C           5.52330639194971      2.02173059324787      2.11033013992969
  H           6.35743613448492      1.39583526146134      2.41764172570055
  H           5.28791009169844      2.73920257732765      2.90299601624988
  H           5.79073453188392      2.57069340241464      1.19989242659182
