19
Coordinates from ORCA-job NEB_reactant E -42.101915334950
  C           2.41329766084990      0.65870591224086     -0.01555329756048
  C           1.57847324867277      1.66314224692653      0.25932050558538
  Cl          3.23134392248271     -0.34557267700437      1.10720951181572
  H           2.62928896012154      0.40563922132557     -1.04059284390854
  C           0.97581706227032      2.43163384697810     -0.90715419529481
  C           3.69176759689034      3.26415678832851      2.08167503623151
  C           3.14470716133421      2.25948567663313      2.76428550595288
  C           1.69820360960391      1.87832530108282      2.65467900037052
  O           1.11717880263254      2.21300112462650      1.39470648967710
  N           4.98896441016875      3.70031891448256      2.22111113312944
  H           3.09715622637067      3.85341583603120      1.39636218871676
  H           3.73106491557085      1.67388333612435      3.45544943586742
  H           1.08265709358039      2.44442461185102      3.36363550325350
  H           1.56468600784603      0.81157085695245      2.86071156898174
  F          -0.34918651444635      2.54766395366879     -0.80289956505216
  F           1.47094289543390      3.67791357166547     -0.96888886035456
  F           1.22150969312567      1.87097237377564     -2.09789072929107
  H           5.61077752063047      3.06974927193417      2.70354313141694
  H           5.39844972686137      4.15306983237670      1.42079048046270
