19
Coordinates from ORCA-job NEB_product E -42.088342236020
  C           3.11517650956325      1.43068456130486      0.18060294038532
  C           1.63898858923101      1.26244903882142     -0.02438291141604
  Cl          3.82851137549192     -0.16187290378118      0.53863106071030
  H           3.59693023098838      1.80406875397930     -0.72753785970999
  C           0.94657500490843      2.52020842866744     -0.64502802305211
  C           3.41194880581932      2.43461113167596      1.32977862185673
  C           2.82936222520418      1.93637632042890      2.62756428587945
  C           1.87846334463543      2.56386349905693      3.29267131093435
  O           0.97946411568082      0.30935855969454      0.25700977779179
  N           4.84631563084372      2.64308547381280      1.35846377350219
  H           2.95219400745978      3.39362462951416      1.06179611077812
  H           3.26900953166863      1.02381547713064      3.00591516646388
  H           1.43148431041365      3.47318728741485      2.92540072720751
  H           1.50264361650518      2.18961804359717      4.22907256934520
  F          -0.13364326681458      2.18438387164766     -1.34274832020289
  F           0.55901042806726      3.37342246517717      0.31479799644220
  F           1.75779108534817      3.20445251915884     -1.46401423197683
  H           5.32212864971810      1.78165465883915      1.60736255567121
  H           5.08614580526736      3.35160818385938      2.04114444938958
