21
Coordinates from ORCA-job NEB_reactant E -39.516842215010
  C           1.90704064531559     -0.20271585299077     -0.25460973974976
  C           1.49997079722807     -0.18644648131481     -1.52751309849963
  N           2.17875717653470      0.95309291444395      0.48926226736767
  H           2.12507719799146     -1.13768341272551      0.23616999636329
  N           1.41302019930998     -1.32564404430835     -2.35322357802533
  C           2.90052283012384      1.37911242420728     -5.21331622408043
  C           2.75831852928968      0.85785856919686     -4.00468483097351
  C           2.28275216330589      1.63472381471110     -2.81795432297187
  O           1.18937016094108      1.00333401095032     -2.16883570408424
  C           3.36115497742376      0.66073611007743     -6.41851314070238
  H           2.68994846615848      2.42613161700322     -5.39888998651041
  H           2.94846795305429     -0.18886331860568     -3.80509124754008
  H           1.91807284867333      2.62310041949773     -3.10906861665738
  H           3.11943888137645      1.74764929943842     -2.11217814215708
  H           1.96182109193256      0.85463899425788      1.47121312314246
  H           1.72461111495528      1.76788568283376      0.09507396043508
  H           0.63967706663782     -1.25670421488617     -3.00354254846863
  H           1.36862569214186     -2.18654097028281     -1.82617779131833
  Br          2.00397061160012      0.82494845182978     -7.84340061523759
  Br          5.02486844547800      1.49777664208047     -7.09046564394235
  Br          3.71681315052776     -1.22649065541412     -6.16265411638951
