21
Coordinates from ORCA-job NEB_product E -39.545388215460
  C           2.22259653514530     -0.09345880560593     -2.49608307353231
  C           0.73713369942709     -0.48969170280419     -2.61393427125050
  N           2.37044771788874      0.51915549438282     -1.18830329370040
  H           2.85416201886432     -0.99522356541221     -2.62498363861340
  N           0.46052423614881     -1.72199651942448     -2.14007058647074
  C           2.55146994140057      0.93990201563967     -3.59688697950608
  C           3.60842133830943      1.91876956374816     -3.17342288850249
  C           3.40012635575904      3.21902482293987     -3.09707529351122
  O          -0.10673629390460      0.26310031182714     -3.03476020669372
  C           2.97585948086631      0.26113591796788     -4.88657563042502
  H           1.61870658700184      1.48794070476878     -3.79485816374939
  H           4.57943437585011      1.49846510437567     -2.94275239399742
  H           2.44163645301882      3.65496748199223     -3.32348364541136
  H           4.17962509741546      3.89769696653192     -2.79793693412123
  H           1.96645615880766     -0.06155174206710     -0.46422049082189
  H           3.34293854362439      0.69306575664205     -0.96513776564094
  H          -0.49059559905300     -2.04892161694229     -2.19492015972331
  H           1.17590145706183     -2.38280931940243     -1.89355633783317
  Br          3.22714094561836      1.58236585546142     -6.29677362999605
  Br          4.66545748075927     -0.70357579784197     -4.68392041562975
  Br          1.66649346999023     -1.04146092677700     -5.52204420086962
