20
Coordinates from ORCA-job NEB E -33.459172664150
  C           0.03254086024860      0.91344812541457     -0.04669257058622
  C           0.01928781517383      0.70669008854098      1.31657611350585
  O           1.20265266495759      0.74298744088986     -0.75995054613489
  H          -0.67626431549425      1.61709139099258     -0.48016593064396
  Cl         -1.55514397874994      1.22151607737651      2.04525341433287
  C          -0.80281138545058     -1.07892878502721     -0.57601448253106
  C          -0.73509360544260     -1.77043237215688      0.63618116045400
  C           0.45734370093079     -1.86828918371970      1.32072000475251
  O           0.70403835272597     -0.08468995169095      1.97045428821934
  N          -2.00073459445256     -0.86758467062521     -1.18644787228643
  H           0.05155877744311     -1.11379232904425     -1.23792601131501
  H          -1.66109846173500     -1.91677772466985      1.17776638542424
  H           1.38524852334625     -1.83060685119213      0.77206940818649
  H           0.49303108020650     -2.35974473010762      2.27817438549117
  C           1.84411379807679      1.95770947294232     -1.08785981013566
  H           2.69631658468196      1.69464151631531     -1.71134884763537
  H           2.19199467278492      2.47598179785600     -0.18881156731582
  H           1.17072026776575      2.62116586256206     -1.64352944146998
  H          -2.80285734213873     -0.76375077791345     -0.58361785062668
  H          -2.01484341487838     -0.29663439674293     -2.01483022968539
