20
Coordinates from ORCA-job NEB_product E -33.491482700790
  C           0.46444903849535     -1.07071475172565     -1.16236322983072
  C           1.07615863281467     -1.01488797838790      0.22182971004733
  O           1.44044364773133     -0.85129026086273     -2.13980577994139
  H          -0.34981608549701     -0.33390350341141     -1.23821773656052
  Cl         -0.07092236699785     -0.41817142334629      1.43797330476916
  C          -0.11022046101335     -2.49847233111747     -1.40237167895459
  C          -0.70796687635028     -3.07181856264384     -0.14384020392984
  C          -0.20019382724235     -4.09379510609618      0.51865271044399
  O           2.17173125794552     -1.31342116921745      0.54697557506705
  N          -1.05704215396928     -2.41811988790549     -2.49989696774387
  H           0.73930287884414     -3.10486112359298     -1.73028560922559
  H          -1.63204949473799     -2.60699829333557      0.17774157920111
  H           0.71759047398092     -4.56651439783769      0.21030872745279
  H          -0.67114990378690     -4.49062285752948      1.40179624064321
  C           1.85721830040228      0.49057640296004     -2.24825301807969
  H           2.56158464712395      0.51950328201417     -3.07629165715495
  H           2.35525629068884      0.83565055606486     -1.33567784764073
  H           1.00898178409983      1.15052427869581     -2.46534449356358
  H          -1.92874086244434     -2.00046567252909     -2.19003413277607
  H          -1.25801492008747     -3.34139720019564     -2.86359549222312
