20
Coordinates from ORCA-job NEB E -41.339867711610
  C           1.03453006246937      0.44719525235782     -0.46583187645331
  C           0.40790976420189      1.69045771475539     -0.50051798530813
  C           0.82753175564415     -0.46416488368605     -1.65602816807542
  H           2.04852496846650      0.41678420103850     -0.07911015017814
  Br          1.12933423616597      3.05063117550056      0.70005620182372
  C          -0.08870414658420     -0.34449476363495      0.94991621913093
  C          -1.38268134262056     -0.13892855512181      0.48154507677404
  C          -1.81286384771890      1.21136791956465      0.28432814097672
  O          -0.82271809570711      1.82746279565328     -0.81130164356289
  C           0.38757882756736     -1.76129661292419      1.16645456984244
  H           0.28739842449881      0.30934765410351      1.73225276556336
  H          -1.85774327092240     -0.92159976061074     -0.09064811317435
  H          -1.65232198175590      1.89062994167244      1.12086905194820
  H          -2.78707181914422      1.34216504161108     -0.17151292311712
  F           1.63521013002213     -0.02531771629451     -2.67751963603784
  H          -0.20141682894653     -0.42530774025391     -2.02588240600964
  H           1.13200643551758     -1.49213772113677     -1.44838984013555
  F          -0.10639084775913     -2.61843326016639      0.24187644786689
  F           1.73553730523056     -1.85669132885001      1.09062828279030
  H           0.08635027137463     -2.13766935357790      2.15881598533576
