20
Coordinates from ORCA-job NEB_reactant E -41.362737847240
  C           1.79560321989422     -0.01440683905297      0.01460513884604
  C           0.85341253719038     -0.07457035250272      0.94817357166716
  C           2.50060061235754     -1.22787744472835     -0.49916359100930
  H           2.09390823485047      0.93304250026342     -0.40251279696557
  Br          0.02204785779632      1.55933296504428      1.53567786369546
  C          -0.11158065926407     -3.25623803593344      4.25971832354921
  C          -0.42022232984164     -2.67441775311309      3.11386466854931
  C          -0.09766907009058     -1.25506460762588      2.78336262501527
  O           0.36767788127742     -1.21892549758913      1.43842421274710
  C          -0.47025373117446     -4.67308807418018      4.59219703820269
  H           0.39696367913530     -2.73721736450882      5.05895668056292
  H          -0.93461599865098     -3.21792522110092      2.33398067499845
  H           0.66019760658659     -0.85008986175412      3.46473232927720
  H          -1.01067537449596     -0.64644115748861      2.87063524095524
  F           3.85830343051922     -1.01210477272118     -0.52253918845607
  H           2.20683067227322     -1.44846010128445     -1.53290240514439
  H           2.31746668487049     -2.09846359037468      0.13744291802788
  F          -1.21246869858832     -4.72100994958824      5.72979482529450
  F          -1.21581603495126     -5.25552999347625      3.62631461032628
  H           0.41798948030611     -5.30754484828466      4.75863725986061
