17
Coordinates from ORCA-job NEB E -38.821960827100
  C           1.11548063840240      0.12391449967568     -0.37802612033220
  C           0.38799822434525      1.29020031412768     -0.58938182683931
  C           0.85508903842891     -1.01796579547357     -1.33310199403642
  H           2.16076707692728      0.22093503949097     -0.10410523187120
  F           0.92456152507520      2.42781883673755     -0.05333924858100
  C           0.17524135488805     -0.45590994828075      1.30512244536988
  C          -1.16006537073915     -0.42676749046564      0.92777250222043
  C          -1.72458409777992      0.81502775401898      0.55105973335612
  O          -0.85485350114790      1.31062631764831     -0.80333697280492
  F           0.73035947180807     -1.63806025316873      1.59176688668497
  H           0.60812388852041      0.32430280379888      1.92607694717332
  H          -1.60382459369021     -1.34529512696013      0.57392856039772
  H          -1.52691227353982      1.66824746192540      1.19134208235641
  H          -2.73290055066855      0.79779241260785      0.16043600596023
  F           1.41979311593397     -0.72709654495634     -2.53452722871104
  F           1.43968760723097     -2.15842161981019     -0.92205900296205
  H          -0.21396155399496     -1.20934866091595     -1.50962753738094
