20
Coordinates from ORCA-job NEB_reactant E -28.413744004550
  C           1.70173539165857     -0.29653016246658     -0.19268608393949
  C           1.80780149114652     -1.57144375571873     -0.55512407372137
  I           2.13282738036617      1.50750956459156     -1.21421592273413
  H           1.33835982946932     -0.07715028759760      0.79489492605507
  C           1.38042346069252     -2.63576378121978      0.43523002832348
  C           2.46391011616722     -2.29992631633469     -5.18677628616818
  C           2.86907508749003     -2.41739144766515     -3.93755754167681
  C           2.54908057178282     -1.43257329661081     -2.85554011410639
  O           2.21196463045885     -2.17056393130084     -1.69243637668766
  H           2.73421500848709     -3.01885616706883     -5.94040710647519
  H           1.85552163099221     -1.47160526767829     -5.51100848149097
  H           3.47541868149600     -3.25229242786990     -3.61626730289761
  H           1.71912770467852     -0.78603946026233     -3.16021335805424
  H           3.43520200235935     -0.81171316711581     -2.66146596059273
  C          -0.06046264246066     -3.06633632850510      0.16530970461613
  H           1.47547358348897     -2.26373281683368      1.45483546221229
  H           2.04386715621792     -3.49231780768227      0.30873601091804
  H          -0.73944191119209     -2.22655765063210      0.29517185705141
  H          -0.35068208647121     -3.85725588863498      0.85234177301408
  H          -0.15661708682811     -3.43725960339410     -0.85202115364573
