21
Coordinates from ORCA-job NEB E -33.374499448160
  C           0.34636777541035     -0.14525257134812     -0.95964528847558
  C          -0.93514447084479      0.34642315546551     -0.68850374305320
  C           0.55398831937049     -1.61928842558777     -1.17920120612180
  H           0.97730550242729      0.48355168813164     -1.58164077003050
  C          -1.25058895571091      1.81713526129287     -0.90413298158605
  C           1.11431591648192      0.12648847652155      0.84097728040807
  C           0.24084555251771     -0.63946487985014      1.62301943334990
  C          -1.10385854702753     -0.25685259040087      1.72153635412600
  O          -1.72058631803212     -0.30006060707305      0.09998132826905
  O           2.40405347562581     -0.31355981094149      0.72950654579492
  H           1.00565788321855      1.20927489779684      0.86451748968436
  H           0.51122298348192     -1.67210072252611      1.77978592908268
  H          -1.32400708965660      0.78805388487762      1.90858840206670
  H          -1.78226765952200     -0.93477532788575      2.21793870200768
  H          -0.22399020030583     -2.18501787844056     -0.67417401155424
  H           1.52802553925226     -1.93468070900430     -0.81065909308377
  H           0.50657010592683     -1.83217505813655     -2.24667609357239
  F          -0.17979806992318      2.51232172406197     -1.41026607953590
  H          -1.52623472583737      2.29384831208280      0.04555503048130
  H          -2.07639760574319      1.93349753361080     -1.61463658552049
  H           2.93452058889041      0.32263364735311      0.23812935726329
