21
Coordinates from ORCA-job NEB_product E -33.404810808210
  C           2.60244121828783      0.59611390258442      0.75278041081021
  C           1.21689356153978      1.17338171766562      0.97376958923559
  C           2.51820180306460     -0.85963972721650      0.30057275661745
  H           3.14576039856611      1.18586095946485      0.00897407469391
  C           1.09643905855347      2.62383130835424      0.52457398644932
  C           3.39856987583659      0.73347214935761      2.08026568600528
  C           2.84834119023461     -0.16282794848099      3.15184958458416
  C           2.02885917781774      0.24423948810015      4.10194787897857
  O           0.30962996722514      0.56323090979463      1.46545905750043
  O           4.74391934599657      0.43319491871783      1.76734511755723
  H           3.32698475091794      1.78380870714182      2.41527349472030
  H           3.17295468359965     -1.19235873438896      3.09471540687934
  H           1.69560486124817      1.26692387009001      4.16766922743175
  H           1.64219657079798     -0.43156340869221      4.84432504751929
  H           1.84282187529274     -1.41191045694418      0.94850670035679
  H           3.50646764903289     -1.30926860711446      0.33150975648279
  H           2.14038722064913     -0.91087052723337     -0.71775745824173
  F          -0.07830290895032      3.19024526881597      0.92843448628608
  H           1.12275732904590      2.66986189974994     -0.57095235298279
  H           1.91277520353912      3.22615636916132      0.93859690124458
  H           5.24019716770435      0.34341794107227      2.58774064787145
