21
Coordinates from ORCA-job NEB_reactant E -33.405461631790
  C           1.45244919923924     -0.09773076924155      0.02555885443893
  C           1.57399170463500      0.90020385679430      0.89251441087075
  C           1.06159617812383     -1.49685205250025      0.36840425279589
  H           1.64120787427333      0.10892048698615     -1.01732745423206
  C           1.91297971050678      2.31642297156068      0.49187094676412
  C           4.12415838906325      1.72182547904340      3.85615440624558
  C           3.69100319021569      0.88781092465721      2.92034107129545
  C           2.38312084466570      0.16269227845621      3.00507439285075
  O           1.34284133858348      0.78909199410326      2.25197231948935
  O           5.28190472919838      2.41514248724487      3.82987819573289
  H           3.56972171258550      1.91535140372488      4.76314717400616
  H           4.27122523796463      0.72596602373245      2.01981607908552
  H           2.00685051108238      0.16504617119476      4.02989517042731
  H           2.51592315312899     -0.87289050363614      2.66721933227094
  H           1.92300824957535     -2.16337608520545      0.30616666300677
  H           0.31791189597092     -1.85319241211474     -0.34208132165448
  H           0.64231452382330     -1.54719757079349      1.36999552046382
  F           2.30910772199211      2.40434991464948     -0.81771148079472
  H           2.73200135950603      2.70480283278856      1.10886383479907
  H           1.03663972971276      2.96447166903404      0.61163247171160
  H           5.76384274615333      2.22824089952136      3.01341516042637
