25
Coordinates from ORCA-job NEB_reactant E -40.160876464150
  C           2.15642428064117     -0.14372810664014      0.05741330769784
  C           1.99879178912509      1.08821550238125      0.54061935653598
  C           1.21280320808265     -1.27819580038346      0.30812074494315
  H           3.02689289217399     -0.35931743448469     -0.54400442554299
  N           2.93715236462270      2.11115407368327      0.41428411091550
  C           3.01837668574129      2.65331097336114      3.76962251511853
  C           1.90959936934295      2.71526714376072      3.05231110911726
  C           1.08871053329638      1.52402321194434      2.66467967074759
  O           0.87695526503067      1.44535702735451      1.26389892744398
  C           3.83759440493157      3.85077761052117      4.14154828199073
  H           3.42284522569999      1.71981668107065      4.13188534812952
  H           1.54306772908588      3.66664168445451      2.69099914121868
  H           0.08435389614567      1.61585122297142      3.09194578549778
  H           1.55582917500839      0.60118794309650      3.03137373930866
  C           1.88796709962615     -2.40461671955251      1.09181537841642
  H           0.86299290942497     -1.67585962457187     -0.64908765592510
  H           0.34511800748143     -0.91032922392029      0.85714889379926
  H           2.74707846561011     -2.78608375449828      0.54425971123885
  H           1.19186687264043     -3.22399700727020      1.25672832170273
  H           2.23298411632502     -2.04388656884426      2.05860163201655
  H           2.53545432419253      3.03572654732652      0.35701749451110
  H           3.64119147859006      1.94600694867181     -0.28810196771867
  F           5.13288325495859      3.68555855674989      3.76073079898515
  F           3.40715970449387      4.98107543784986      3.53204949108298
  H           3.84560694772844      4.04314367496812      5.22944028876851
