17
Coordinates from ORCA-job NEB E -42.401154311540
  C          -0.03228650567082     -1.42507154424514      0.36423148103651
  C          -1.41868728633920     -1.22679363486449      0.34275477394656
  F           0.57992209038560     -1.30238899470085      1.55310628271520
  H           0.41357580844634     -2.22663275246463     -0.21984638903741
  Br         -2.26757511133118     -1.84783879793033     -1.29607506517389
  C           0.49564371353410      0.25544029092509     -0.47534101021572
  C          -0.14313726281730      1.19863155870868      0.32922814410298
  C          -1.56943809695899      1.19349888877118      0.34984381629047
  O          -1.97097996804226     -0.25473813401493      0.94659555891843
  C           2.00705400904796      0.23831369283701     -0.48831911484893
  H           0.10057316100659      0.04622903927442     -1.46696535219373
  H           0.38828013872820      1.59186397940827      1.18369456478342
  H          -2.06818356573479      1.16086850095383     -0.61767815488143
  H          -2.04634644125155      1.87105515876082      1.04700205683807
  F           2.49936811811348     -0.93657699865210     -0.90640464729199
  F           2.47440863359054      1.16591736128639     -1.34251979280410
  F           2.55780856529330      0.49822238594677      0.69669284781555
