23
Coordinates from ORCA-job NEB E -40.929463463860
  C           0.06332199977579     -1.24913067466862     -0.09234375203268
  C          -1.27003635040743     -1.31969211090913      0.30847628327155
  H           0.80618434699147     -1.36318251917169      0.68139817817553
  H           0.32532324837419     -1.72338318742135     -1.02855284672934
  C          -2.32711050345830     -1.56919520068884     -0.75251376349163
  C           0.28595222084688      0.63244590859844     -0.37545001536554
  C          -0.14453707461966      1.12957174614723      0.85332948248633
  C          -1.50281903931430      0.89387252271201      1.24789082548886
  O          -1.65521744712086     -0.67933183371404      1.38650605834857
  C           1.71142532742223      0.81797577873677     -0.85028494201752
  H          -0.42012401482397      0.72020499927498     -1.19705115294026
  H           0.57828202144227      1.27648425365333      1.64134477831966
  H          -2.25955797841280      1.14785892788549      0.50810662452502
  H          -1.77441028276601      1.23773726717151      2.23956439780620
  F          -3.49650802408810     -1.95617089893454     -0.23818371631945
  F          -2.59702966936463     -0.46656450779113     -1.50246447019193
  F          -1.94665849470467     -2.51232488065300     -1.63025965355111
  C           2.77621025864406      0.79040351985065      0.23972869443877
  H           1.75559955317923      1.78350168910429     -1.36308452130009
  H           1.93659603451816      0.05360273960579     -1.59660538517204
  H           2.68181814670143      1.64807472100550      0.90027690445228
  H           3.76359920361854      0.82449863404026     -0.21418954890802
  H           2.70969651756648     -0.11725689383392      0.83436154070683
