23
Coordinates from ORCA-job NEB_product E -40.962203748280
  C           3.27947400342669      1.25293380594290     -1.58833185551602
  C           1.90792349510792      0.79129971015001     -1.22766277752346
  H           3.97718648331151      0.87971858704905     -0.83830580276870
  H           3.56388629396216      0.90001498991387     -2.57972569469916
  C           1.00188334895871      0.51648389809006     -2.46854187789925
  C           3.30486251280515      2.80516785969757     -1.56284451527889
  C           3.02866955780862      3.30077245591726     -0.17496943094239
  C           2.08428780316969      4.17403482672104      0.11792969110048
  O           1.46588077956097      0.65017959018507     -0.12501902139121
  C           4.64646606561881      3.32958342220041     -2.10525713646368
  H           2.52202895983696      3.17881078057340     -2.23081992474001
  H           3.65701892932711      2.89479636980335      0.60492794199155
  H           1.43607128332291      4.58540207404416     -0.63895278880761
  H           1.91715679326065      4.51539030491657      1.12456497070285
  F          -0.23260522193527      0.15220761600961     -2.13621739235126
  F           0.90321724755004      1.59778571354079     -3.26048121862823
  F           1.52334008465532     -0.46356762397902     -3.22727762582567
  C           5.87839225422263      2.88400180948069     -1.32715313991575
  H           4.59530276911541      4.42042403456775     -2.09359644376967
  H           4.74628269301669      3.01438909990573     -3.14634000114925
  H           5.81648782782054      3.19213936010058     -0.28726448524221
  H           6.76487004919581      3.34091659676045     -1.76070850773718
  H           6.00601598688098      1.80531471840869     -1.36835296314527
