23
Coordinates from ORCA-job NEB E -32.606765474820
  C           0.83935067475033      1.67290601270704     -1.25302942805236
  C           1.37379075235435      0.57420267394455     -0.72086014023662
  C          -0.55735607486318      2.13372684037463     -0.96736968098700
  H           1.41685885334565      2.24571742164415     -1.96287467529189
  O           2.64594360672058      0.14331784673972     -0.98783835580197
  C          -0.80569445594240     -1.75364319137190      1.86432070318097
  C           0.46892172367725     -2.03499427312614      1.65776660206781
  C           1.37697918479506     -1.28411357983651      0.73806581689462
  O           0.68442689264641     -0.20000904999709      0.14501882319734
  N          -1.59285480453042     -2.53065570263365      2.76308880116630
  H          -1.27211476068107     -0.91801555043432      1.34606453055430
  H           0.92749283289410     -2.86575548859702      2.17301722647750
  H           1.75468358356754     -1.96092251914667     -0.04208311896345
  H           2.24733789635202     -0.91237602506716      1.29839423989301
  C          -1.50888755025542      1.79997883496269     -2.11754116829681
  H          -0.55566250598506      3.21516971357280     -0.80792264223322
  H          -0.90695373245294      1.65065586928264     -0.05502730138373
  H          -1.17194364443593      2.26943412741894     -3.03940296137918
  H          -2.51338262713694      2.15419998327972     -1.89675631092123
  H          -1.54492186830327      0.72434215103797     -2.27193552102610
  H           3.05746911486963      0.74578216391325     -1.61563137032540
  H          -1.98237229451973     -1.93070737677601      3.48573013055099
  H          -2.38111079686657     -2.93824088189166      2.26680580091611
