23
Coordinates from ORCA-job NEB_product E -32.632790148460
  C           2.51744162317576     -0.99981454107860      0.90570005565218
  C           1.40280724817840     -0.21860033837349      1.58748487219621
  C           2.31306648376475     -0.96057381610241     -0.61196684730846
  H           3.47309015565546     -0.51932920973069      1.15115288459894
  O           1.65881628074180      0.11698531560288      2.86719594448772
  C           2.56161582556996     -2.42028487130827      1.54543374985594
  C           1.69632802611811     -3.40182608192008      0.79863012275774
  C           0.46323811760233     -3.70919995708256      1.15312736677201
  O           0.36573621056156      0.08033488330051      1.07324837927133
  N           3.95532888476496     -2.82618499097390      1.68073201561193
  H           2.17147676747015     -2.34714886058717      2.57088053917451
  H           2.15543664661479     -3.87519488368000     -0.05988276045420
  H          -0.01276088761397     -3.24872691872024      2.00308931154564
  H          -0.12864163393760     -4.41877547448006      0.60067296091557
  C           3.51196330433247     -1.45687071295934     -1.41040683853827
  H           2.11392201916528      0.07802524154934     -0.88486741776091
  H           1.42186348882425     -1.53440916880782     -0.86813529322787
  H           4.42058634241516     -0.94450481890974     -1.09978906363787
  H           3.35601986625387     -1.26163294749453     -2.46868936075450
  H           3.65944035070421     -2.52748109695163     -1.29112335477039
  H           2.53428548787749     -0.17729580079054      3.15463507635573
  H           4.38119147563231     -2.93955398010222      0.76717073769203
  H           4.01304791612848     -3.71823697039944      2.16030691956499
