23
Coordinates from ORCA-job NEB_reactant E -32.620753618980
  C           2.64302063917864     -0.16139236549028     -0.07234153619688
  C           3.17851230618616     -1.34993074526226      0.20635913214785
  C           1.25109413339440      0.02255693709908     -0.59349460914340
  H           3.25242202215772      0.72465514871177      0.03109778318448
  O           4.45896346646016     -1.50381583070291      0.67029068480065
  C           1.91962714320455     -4.36858521061929      2.76349802899109
  C           2.86411003008955     -3.68647129970636      2.12082660622915
  C           3.00389324293916     -3.68871412592100      0.63224128344616
  O           2.48882085150710     -2.49582600082127      0.03246547612493
  N           1.79996100968230     -4.45654794658970      4.13624179462418
  H           1.22058287383685     -4.98852974707080      2.21795060262232
  H           3.55766242188014     -3.06232570118455      2.66541373775446
  H           2.40148467931362     -4.48406301447161      0.18801634120795
  H           4.05281702729446     -3.81626119885545      0.34210148047097
  C           1.25054083741227      0.43408103354420     -2.06640111754345
  H           0.74383413404027      0.79534673798911     -0.00849356839286
  H           0.70673272073792     -0.91426120898327     -0.47653358499508
  H           1.79575435669571      1.36603703500583     -2.20224924523477
  H           0.23257722977032      0.57451142211546     -2.42302165115532
  H           1.72707732574528     -0.33490503217119     -2.66937936416728
  H           4.88179509119559     -0.64023389248228      0.71007496961337
  H           2.30358581894204     -3.75035043158821      4.65206177022867
  H           0.87223063833579     -4.62897456254503      4.48867498538280
