20
Coordinates from ORCA-job NEB E -34.095292998480
  C           0.71263962264374     -0.55042710420311     -0.75135691728216
  C          -0.50053154648832     -0.08637788719905     -1.28700233718188
  C           0.85032100424764     -1.87292902425568     -0.28606963138206
  H           1.63149586124161     -0.12429254918883     -1.14055378724231
  C          -0.46188362273055      1.14718395315230     -2.17995669134897
  C           0.57757954825521      0.31845520376185      1.15782194223467
  C          -0.64842477079962     -0.27051018426621      1.52551486913980
  C          -1.82835118860719      0.11284497436268      0.93251782729965
  O          -1.62059790212549     -0.48390710539562     -0.87220398158491
  N           1.72618897986165     -0.00986803214958      1.81855551431589
  H           0.56947289509338      1.33341825498648      0.77625504684998
  H          -0.60228179527714     -1.22219149332895      2.03581693377370
  H          -1.96320838064466      1.13390616400958      0.60839124601270
  H          -2.73535417845332     -0.42023279928777      1.16091111256854
  N           1.01912232463302     -2.93514535491863      0.11330280591274
  F           0.73071860648597      1.82223085461611     -2.08074005787719
  H          -1.26026578636967      1.84212818009455     -1.89915874498508
  H          -0.58433008077773      0.85995601191317     -3.23044267874510
  H           1.79834776278046     -0.96818700675554      2.13015353914011
  H           2.58934264703101      0.37394494405225      1.46824399038188
