20
Coordinates from ORCA-job NEB_product E -34.117047795060
  C           3.01095250870446      1.47205315885342      1.48348673132298
  C           2.11811076286234      2.42747852391122      0.69282737864851
  C           3.08648401488254      0.14864814135270      0.92755097862702
  H           4.02102769486090      1.89548036610295      1.52874820768014
  C           1.09599938454090      1.73254503476860     -0.18488969324055
  C           2.49330577648096      1.41341085816434      2.95938799711835
  C           1.15781108563673      0.72175700955936      3.02586421396746
  C           0.03828229309979      1.31344411547324      3.39887224463623
  O           2.21184894008068      3.61507938543009      0.80364752164742
  N           3.52333098849740      0.77281225129064      3.75710327023319
  H           2.39738538481719      2.44783620531323      3.30824761806864
  H           1.17681760863456     -0.33267454500519      2.77532355554447
  H           0.00988631189950      2.36063214799535      3.65236212191139
  H          -0.89499635514182      0.78034035030524      3.46172103623698
  N           3.15059589223580     -0.91457384554793      0.51023712076540
  F           0.24332256620926      2.62627442289921     -0.76047550968456
  H           0.49699807471523      1.03524849240208      0.41405892266258
  H           1.60098522464277      1.18543207102840     -0.99091151520191
  H           3.60462992394641     -0.21062554047196      3.51758100701046
  H           3.30662191839440      0.84360139617503      4.74395679204578
