20
Coordinates from ORCA-job NEB_reactant E -34.129620451910
  C           2.23417323185972      0.38712612839023      0.51735929301471
  C           1.49252341596367      1.50040755760934      0.64278190084399
  C           2.30571022766587     -0.70969941161205      1.38503164846731
  H           2.87130448864361      0.29914355230335     -0.35234833144998
  C           1.54243393195276      2.59164318542914     -0.40150424483832
  C           2.57982047121293      1.75450310421959      3.69469370851432
  C           1.58334871829029      0.87495530284886      3.63242679662780
  C           0.40571351259150      0.99234760198448      2.71116026457464
  O           0.62000616073925      1.85282273295206      1.59957797816495
  N           3.61823641993521      1.70396519285012      4.60087375140719
  H           2.59186193661656      2.62822104985376      3.05616491007050
  H           1.57591612314698      0.00450855835564      4.26962187771421
  H          -0.45104203138636      1.44411804132563      3.22609978875993
  H           0.10929920788294     -0.00367092648511      2.35919606250500
  N           2.42087327082009     -1.65680399543355      2.02615246127549
  F           2.51024737964756      2.36732200914812     -1.33791849454446
  H           1.75757551839379      3.55572238178347      0.07269408748275
  H           0.58353112978459      2.65479046711011     -0.92935850253309
  H           3.72500493328189      0.81387743153563      5.06475974312169
  H           4.49126195295716      2.10110003583114      4.29193530082135
