15
Coordinates from ORCA-job NEB E -29.815053758800
  C          -0.52992794562719      1.88188865944168      0.77074964547905
  C          -0.08219830599639      0.62400682189838      1.32915867517092
  I           1.57297704945885      2.48544326807589      0.38924010252860
  H          -0.87311685015929      2.59810679891673      1.51757194962518
  C           0.63214866054305      0.54457867344932      2.55786664145204
  C           0.92535983970606     -1.28485993846433     -1.62605397799353
  C          -0.38942453243499     -1.18161605925038     -1.56137505543458
  C          -1.11714136884528     -0.53675515006899     -0.42456487490720
  O          -0.31640418701824     -0.52189635175994      0.75531449736344
  I           1.91769438403659     -2.15787140346727     -3.25179999543513
  H           1.59312559630324     -0.93996538941344     -0.85489641299791
  H          -1.02504487540437     -1.53839664522065     -2.35772732965441
  H          -2.03175629283699     -1.09004416513772     -0.19244819559839
  H          -1.37429790092631      0.51397048226587     -0.65778500527740
  N           1.09800672920124      0.60341039873486      3.60674933567933
