15
Coordinates from ORCA-job NEB_product E -29.898891286420
  C           1.53275374189569     -1.68580968171662     -0.35480356885060
  C           2.49850551531579     -2.22908718979773      0.67470653258761
  I           2.49215871314199      0.12871467364462     -1.07313497125241
  H           0.61548919196538     -1.34593602786613      0.13705334722976
  C           2.62349245899093     -1.35612319542321      1.83017468535830
  C           1.18803287099690     -2.67876512765217     -1.44687451930219
  C           0.13569113546772     -2.17381048645078     -2.36958181135287
  C          -0.98181815027650     -2.82790527398562     -2.62823746460510
  O           3.09082807521420     -3.26754241831676      0.56493806994072
  I           2.94640305737247     -3.22767205324912     -2.61486447025550
  H           0.87172816099913     -3.60969166427440     -0.96775415825727
  H           0.34646088313954     -1.22268564610428     -2.84175351325001
  H          -1.20185297577918     -3.78327684986997     -2.17979023879079
  H          -1.72020229621942     -2.43413076899348     -3.30395070335062
  N           2.67692961777533     -0.69027828994435      2.75867278415095
