18
Coordinates from ORCA-job NEB E -42.124450242760
  C           0.91404661583019      0.55439597326072     -0.68858122160367
  C          -0.35708740957924      1.09239591162934     -0.41081689428533
  Br          1.22596267908134      0.01148074915964     -2.49958957242365
  H           1.79025802214011      1.05930095139898     -0.29703698231269
  C          -0.51199551021063      2.09363809307116      0.71292289408041
  C           0.79274762052134     -1.08714939458220      0.27479607069292
  C          -0.36917547513637     -1.67177034367730     -0.25634627145958
  C          -1.60212717476557     -0.98519107696186     -0.06558738663191
  O          -1.40765647306499      0.44412346831855     -0.80026794976214
  C           2.04615298444177     -1.73069954796812      0.04334546440022
  H           0.73191943408960     -0.65331811352687      1.27105969765696
  H          -0.26918334519020     -2.33974072300349     -1.10079615796489
  H          -1.83183497029797     -0.67001085498184      0.94936692576290
  H          -2.46201808324285     -1.39269002885321     -0.58372270430040
  Cl          0.74548333115962      3.34232360448094      0.62666932702627
  Cl         -2.10641687438650      2.85439544745695      0.60715979955569
  Cl         -0.38559013567180      1.31504404991647      2.34618100695270
  N           3.05651476428212     -2.23652816513785     -0.12875604538381
