18
Coordinates from ORCA-job NEB_product E -42.159637659130
  C           2.74152777220054     -1.15818169410666      1.69837941068817
  C           1.47466476198919     -0.33949778714744      1.68964542642698
  Br          3.56849386859621     -0.73207723437681     -0.03122919658372
  H           3.44986697164698     -0.81593510558628      2.45447765790232
  C           1.56134533938876      0.96160194740214      2.50619435504399
  C           2.45746237131274     -2.65927918387965      1.84771248008941
  C           1.58019172496722     -3.22697462464819      0.76125003653997
  C           0.50122733388704     -3.94434411901393      1.00375555260921
  O           0.46362087842649     -0.65791764180698      1.14165752486951
  C           3.71449412984605     -3.38380092059243      1.85651910101924
  H           1.97708551224041     -2.80564773318086      2.82536712091412
  H           1.91160788966994     -3.03267020607332     -0.24893798839139
  H           0.16084308078986     -4.15287533533386      2.00511170953781
  H          -0.09330078194017     -4.34661519277436      0.20317175885589
  Cl          3.04992454442502      1.87075622137729      2.20387569620338
  Cl          0.15536989631054      1.98327904694326      2.21620116364316
  Cl          1.54846154588846      0.37968973384428      4.20242280500296
  N           4.70201316035474     -3.95591017104622      1.84922538562898
