18
Coordinates from ORCA-job NEB_reactant E -42.156603189650
  C           1.71438969855611     -0.56027401833837      0.17869862165837
  C           1.24688040418744     -0.44694206711185      1.42153657747838
  Br          1.54900237821701     -2.03180727967834     -0.98111454090967
  H           2.22899965980566      0.26069338009612     -0.28839413710988
  C           1.44405269829138      0.84600050833534      2.19041956497360
  C           2.80004527307338     -4.10217145111146      1.55597651711915
  C           2.24208038805839     -3.09274669863016      2.22035812765571
  C           0.79893509664491     -2.71857657968477      2.11155172966205
  O           0.59454142365930     -1.31417919866982      2.22403837744762
  C           4.15942580674785     -4.43915668391474      1.71038686935222
  H           2.23954363103580     -4.71502342762087      0.86199955162208
  H           2.82737989472426     -2.48607134883798      2.89971338742096
  H           0.25375748438908     -3.11548829787436      2.97675315444669
  H           0.34087224677543     -3.12276341380626      1.20331072630924
  Cl          2.70499237141916      0.55138991112611      3.42655057206034
  Cl          1.94676647863327      2.21601808306298      1.20026188796258
  Cl         -0.06892892962626      1.27686936171234      3.01521469702747
  N           5.26316399540784     -4.72127077905392      1.83533831582310
