24
Coordinates from ORCA-job P E -42.582099438840
  C          -1.31944622365640      0.28184266100566     -2.36801565711617
  C          -0.26671868518741     -1.74388326104977     -0.82559073295105
  C          -1.62396273283034     -1.92866683112784     -1.43241734700872
  C          -2.11952668444783     -0.97320393403127     -2.19924462869978
  C          -0.87755269897546      0.75269805647399     -0.96964075247129
  C          -0.11586623406117     -0.34207260417267     -0.19433971425709
  H          -2.14438211820346     -2.85379969687596     -1.24589429145373
  H          -3.08316258382987     -1.02537268360275     -2.67863847473134
  C          -2.09074695299855      1.37906159013967     -3.09136794612946
  H          -0.06980046597454     -2.50663845035796     -0.07391167755095
  H          -0.42045290582488      0.06977229043682     -2.96007859402070
  H           0.48222181345238     -1.85192141227318     -1.61600515934228
  H          -1.77490350374793      1.02016839610547     -0.41017960319979
  H          -0.51040937725970     -0.38570663476762      0.82521938308576
  H          -0.25676824603199      1.64310680666819     -1.05282495949922
  C           1.36110301438751      0.02038194987792     -0.05849324987301
  O          -3.23520022914278      1.24767590440402     -3.43856378671755
  C          -1.31082392460003      2.64567172795641     -3.33797934970881
  H          -0.25648677312660      2.44359728260079     -3.50171483706494
  H          -1.41109518480822      3.29060156957200     -2.46601376331247
  H          -1.72962382831115      3.17275269903661     -4.19151163358774
  Cl          1.55288915613771      1.53635367278534      0.86709344975280
  Cl          2.26024727542190     -1.24620764256107      0.81060494392017
  Cl          2.12843809361879      0.25165854375720     -1.64375161806266
