24
Coordinates from ORCA-job R E -42.494806824690
  C          -1.25046916004574     -0.03509457743232     -2.78883645487939
  C          -0.56175686583924     -2.97269272624987     -2.52773934284369
  C          -1.63656414105108     -2.37090006368724     -2.02444646220553
  C          -1.85716627774797     -0.94280837417095     -2.00944425185300
  C          -1.33780677690454      1.34955327515122      0.79518715437261
  C          -0.31340563276861      0.54353563563350      0.58520544394505
  H          -2.40932515333821     -2.96673615761202     -1.55522767930260
  H          -2.59406029854718     -0.57304553765039     -1.30642947471027
  C          -1.53027338804043      1.39941323135514     -2.64282770545764
  H          -0.44521146219250     -4.04219811092481     -2.49740744807757
  H          -0.53614376240161     -0.32303555335859     -3.54492718856497
  H           0.25044545764779     -2.41665800186208     -2.96452825563529
  H          -2.28197423579121      0.96399517257330      1.13478534355763
  H          -0.38199455114251     -0.52271093151720      0.75170007737949
  H          -1.28578064027958      2.41053003811611      0.62768268388463
  C           1.03667828490236      0.97251638757376      0.13407730070617
  O          -2.29833394932844      1.83845474290601     -1.81134205147148
  C          -0.76938746076623      2.28535422213881     -3.59622379999769
  H           0.29944839254490      2.14130923319666     -3.45042657172611
  H          -1.02205533385686      3.32799368572932     -3.42489485525607
  H          -1.01067746936079      2.01247708229801     -4.62172387041031
  Cl          1.11409513074089      2.65383546025507     -0.39955149994906
  Cl          2.19930324280165      0.75989740606478      1.48733944248754
  Cl          1.58721605076512     -0.06044553852622     -1.21007053399244
