24
Coordinates from ORCA-job TS E -42.479421696560
  C          -0.70827626308164      0.15140884519591     -0.95481700516048
  C           0.57037986871991     -2.22050663393068      0.04124924837802
  C          -0.74737992045803     -2.18931518082476     -0.27675521259283
  C          -1.37271878550666     -1.03645182228123     -0.78691524843583
  C          -0.25798844110215      0.51905337991260      1.18739462651500
  C           0.57669623034174     -0.44791989200293      1.65862477116029
  H          -1.38616124526935     -3.00720856741264      0.02733090780422
  H          -2.45187338130594     -1.02080188921169     -0.86279821030704
  C          -1.46309672490752      1.36333196892219     -1.34209823980096
  H           0.98400776777990     -3.07167963412631      0.55539027169891
  H           0.35296728889544      0.17069082441879     -1.14343035831014
  H           1.28194600196562     -1.56726924193270     -0.42741422100618
  H          -1.30396277816616      0.48871773191025      1.43086868757416
  H           0.21228024346707     -1.24919193398069      2.27921767010121
  H           0.13886787067219      1.47342098478543      0.88907053342926
  C           2.04260329867662     -0.20750311912002      1.74540959900498
  O          -2.65702338590779      1.46882244778020     -1.17366813955414
  C          -0.62282808108603      2.45181028116373     -1.96175431347578
  H          -0.25179712047346      2.10506004821609     -2.92483953245489
  H           0.23675764127223      2.67493984438137     -1.33404022634243
  H          -1.21653392892929      3.34961193789596     -2.10985455120194
  Cl          2.70115142708059      0.57762419803847      0.29359010304375
  Cl          2.37273507728917      0.91044061669685      3.13404301078254
  Cl          2.96924734003352     -1.68708519449420      2.05619582915031
