21
Coordinates from ORCA-job NEB E -47.917214607890
  C           0.80139231357429      0.10086058361696     -0.40970370157693
  C          -0.06766240209163      1.26222544893002     -0.32528497354444
  N           0.36663704803911     -0.51442962716530     -1.67383742525892
  H           1.86760614369680      0.31355811267606     -0.43129083230699
  C           0.45383362069586      2.58427218392351      0.02376735130958
  C           0.40808557125362     -1.04863610975123      0.64548332941432
  C          -1.01611259007367     -1.24234108134544      0.34411057663635
  C          -1.87441521528843     -0.05884998130635      0.53191171790083
  O          -1.39526681089834      1.07111857181820     -0.26036307952165
  N           1.29567858407527     -2.16648294394496      0.47016787702460
  H           0.59028077288263     -0.59177199255870      1.62054754368436
  H          -1.44757461636239     -2.21819969478845      0.20083992822234
  H          -1.87345424070039      0.28101976452966      1.57201965259944
  H          -2.89495782131881     -0.22329240821980      0.18857360340158
  O           1.09381983316834     -0.53486869174955     -2.64099575952634
  O          -0.79330262414059     -0.95144123375851     -1.61899522585328
  Cl          0.89786351639660      2.59462496206203      1.84818475146182
  Cl          1.94580445904623      2.97527903925174     -0.83640726892912
  Cl         -0.73535529659654      3.85632783309173     -0.20527057174348
  H           1.04422251593662     -2.73126786676341     -0.33251131863351
  H           1.33287723870546     -2.75770486854818      1.28905382523945
