21
Coordinates from ORCA-job NEB_product E -47.945614124170
  C           2.60445010946713     -1.33844460042720      1.35690053929761
  C           1.69579580548361     -0.13580297851610      1.25265409069400
  N           2.75149365344845     -1.90661876353340     -0.02108196790566
  H           3.61011930423251     -1.06180518439194      1.68196832560624
  C           2.22493223124965      1.12026835916453      1.96988284239881
  C           2.00680134301314     -2.39549578123256      2.34745716353314
  C           0.52188627285835     -2.56818643326033      2.16991316921679
  C          -0.35761918009305     -2.23516179548040      3.09548228345841
  O           0.65749760279398     -0.12537818252088      0.66529118539212
  N           2.77274910627268     -3.61717506943930      2.17829040205518
  H           2.21026543625630     -2.00763921581565      3.35160883788328
  H           0.21332022359789     -3.01623539628591      1.23674990632641
  H          -0.06049432193653     -1.78368161683996      4.02887845132024
  H          -1.41203772754510     -2.39693876364899      2.95689259878202
  O           3.72723415990416     -1.54340344928926     -0.62057445812438
  O           1.90259152522973     -2.64775607339031     -0.42898346880999
  Cl          2.70557469365964      0.73101530123576      3.62934882061964
  Cl          3.65234153365181      1.66260662547020      1.04199052583474
  Cl          0.99767609244683      2.38555996884229      1.98864297917028
  H           2.44698590437946     -4.13670816037977      1.36918271720850
  H           2.68383623162937     -4.21341879026082      2.99040505604261
