16
Coordinates from ORCA-job P E -22.151859675740
  C          -1.37038836254017      0.44964720330299     -2.30204568263640
  C          -0.01948307708449     -1.56973528358693     -1.06584544264933
  C          -1.39367683720859     -1.85347673849358     -1.58270500780410
  C          -2.05303482126346     -0.87380172067109     -2.18009311377397
  C          -0.78218682401598      0.87829692081065     -0.95028514629646
  C          -0.02032128128327     -0.26230599623571     -0.25554566356447
  H          -1.81622961383687     -2.83669264388002     -1.45142247654274
  H          -3.05225375175440     -0.96221533940915     -2.57266846100440
  F          -2.25394985445516      1.41941841680248     -2.73646604234485
  H           0.34567158318227     -2.38622360949324     -0.44299334603343
  H          -0.58021962734784      0.40648176733424     -3.06730410326369
  H           0.66589559415555     -1.46128862991490     -1.91240411820109
  H          -1.62115401424269      1.20096502243357     -0.33170046668322
  H          -0.48233528121075     -0.46314863372041      0.71187817510712
  H          -0.13616873599913      1.74296963464717     -1.10570270505059
  H           1.01164490490498      0.03664963007392     -0.06914639925838
