16
Coordinates from ORCA-job TS E -22.043144849240
  C          -0.58084266023337      0.72004058259971     -1.32287585167772
  C           0.84644041420984     -1.39931318162108     -0.04688895024381
  C          -0.47648933492026     -1.48019320753606     -0.32918832942428
  C          -1.18459949748609     -0.43718701818891     -0.96784891288939
  C           0.11956792672818      1.40946689089993      0.79504700010580
  C           0.77430102787171      0.38795997235808      1.38824688465206
  H          -1.06570264204040     -2.27276017731414      0.11043449618534
  H          -2.26419849288423     -0.47403270697285     -0.97911595733579
  F          -1.31983571910581      1.75056568172124     -1.77477424256872
  H           1.32236104339019     -2.16801400919911      0.53962664972032
  H           0.45655094921527      0.83734112594893     -1.58895511928822
  H           1.50851018831466     -0.78188667260438     -0.62467756956059
  H          -0.91602928393987      1.60522711565990      1.01258110348198
  H           0.27428996553103     -0.24334641665113      2.10183659128367
  H           0.65574374178450      2.19857725390695      0.29608372914437
  H           1.84993237356465      0.34755476699293      1.39046847841499
