20
Coordinates from ORCA-job NEB E -45.635722613960
  C           0.39279328936492      0.84074804022744     -0.29776596674101
  C          -0.87108677817644      0.95246833318641     -0.96726468115542
  C           1.62913652147815      0.89216988648159     -1.16397217922919
  H           0.50507866127319      1.60097294451671      0.47624625811099
  H          -1.00388671342050      0.53123142953138     -1.96226203598145
  C           0.20448461391259     -0.55600673478428      0.75836416559086
  C          -1.16590131466583     -0.60211561314953      1.22518997080096
  C          -1.84832568860201      0.64284896750253      1.29496412159601
  O          -1.91870516804257      1.09911703631639     -0.24831150032546
  C           0.57426331764686     -1.89693152308129      0.13610043705051
  H           0.95599130585413     -0.29426842799010      1.50192607750099
  H          -1.76025603731203     -1.41322123112194      0.81881146747417
  H          -1.33444407572597      1.46333777825810      1.79054008895510
  H          -2.89906766162785      0.60749160829588      1.55597053940046
  Cl          1.60745394734240     -0.22111330232180     -2.53356655924213
  Cl          1.73019301706558      2.56234775617162     -1.83358249254728
  Cl          3.09900764357935      0.63944398422782     -0.19478068001496
  F          -0.11689227333955     -2.11703889777840     -1.00850224812294
  F           1.88354196587600     -2.00809478186763     -0.17452352238859
  H           0.33662142751959     -2.72338725262089      0.82641873926838
