20
Coordinates from ORCA-job NEB_reactant E -45.686743822030
  C           1.90814288753025     -0.15724756654524      0.07563428727872
  C           0.96006936237109     -0.99013992983772      0.50289203822723
  C           2.32071718031600      0.01050795672195     -1.33046272108806
  H           2.43026926606875      0.47140714106653      0.78040507700182
  H           0.41862468400389     -1.63383175573137     -0.18275062862321
  C           0.33087667064855     -4.26191445062040      3.24605909996214
  C           0.42292698242218     -3.42244981482414      2.22955794456466
  C          -0.27089969294609     -2.09428760931395      2.16936562433704
  O           0.61462719335894     -1.05287404792974      1.79874162506470
  C           1.01435906932648     -5.59543676808343      3.28723611123564
  H          -0.27336905218170     -4.05599744900868      4.11721434115927
  H           1.03738936607486     -3.66616487981426      1.37254639238289
  H          -0.66351039564804     -1.81386603894424      3.14892924199519
  H          -1.10444654420378     -2.15482287729262      1.45377298904823
  Cl          1.48478351631984     -1.07040487429770     -2.45296597071440
  Cl          2.01374309905904      1.69754894498605     -1.86273777285290
  Cl          4.08122891459540     -0.28698609564402     -1.48954845333213
  F           0.11481135287097     -6.58229744136231      3.54080551703549
  F           1.60168134831074     -5.90868250987459      2.11027045125257
  H           1.78747479170262     -5.65165993365011      4.07363480606512
