20
Coordinates from ORCA-job NEB_product E -45.682537643970
  C           1.77458898609814     -1.60788762812047      1.07936264174357
  C           0.80165450310527     -0.43126892638417      1.16937721630511
  C           2.08678726109336     -1.87911475502157     -0.38782366308037
  H           2.71527226928315     -1.30849960376635      1.55811596943709
  H           0.03503723192510     -0.42267783582322      0.37754703784906
  C           1.16012102507823     -2.73260876485612      1.96181337348622
  C          -0.17568784362271     -3.24941745651983      1.49189811297758
  C          -1.32472917705695     -2.69835876937381      1.83434944043525
  O           0.83169758096262      0.38323455514922      2.04053044726839
  C           2.10524362775747     -3.91567941691243      2.20390802999620
  H           1.02671504547049     -2.25459926692882      2.94074303902582
  H          -0.14858698111785     -4.12607092244836      0.86219113632644
  H          -1.37611292485498     -1.82620132108629      2.46579039370740
  H          -2.26236061492533     -3.09471510021427      1.48722168688637
  Cl          0.72729992649824     -2.58356314104966     -1.27424563223011
  Cl          2.43209760984913     -0.26996788710427     -1.12696579065597
  Cl          3.52844543221581     -2.88154820680262     -0.62575696117599
  F           2.20886572741703     -4.72707695799066      1.12961326713380
  F           3.35658541958846     -3.49591418830473      2.49992714959379
  H           1.75236589523531     -4.53616440644156      3.04400310497035
