17
Coordinates from ORCA-job NEB_reactant E -37.644409698900
  C           1.78694102831595     -0.02250253661828      0.04291699822061
  C           1.15460275098357      0.52952609834436      1.07935640486884
  C           2.08955934340114     -1.45157077827201     -0.19033397226337
  H           2.13779447969544      0.62614121465441     -0.74393323363855
  H           1.02031234988322      1.60751658568902      1.08399701147989
  C          -0.22547756614598     -0.12402617883057      5.47742548163935
  C          -0.46840232680216     -0.29487617464772      4.19065002436264
  C           0.02217650918419      0.64147206232089      3.13180730808661
  O           0.66216238018504     -0.13487599986238      2.13235120056394
  Br         -0.87904671746935     -1.29794033841490      6.79847701579332
  H           0.33963287002235      0.70073585647525      5.88303799068082
  H          -1.02841469441384     -1.14484965574665      3.82978167282472
  H           0.71974639319981      1.37825389631662      3.55200012261535
  H          -0.83384403281228      1.17720491845499      2.69276704133850
  Cl          1.51799934172020     -2.54979539627928      1.06026478605426
  Cl          1.36428692266563     -1.95971485559337     -1.75316003321086
  Cl          3.86797096838708     -1.65969871799039     -0.34470581941607
