17
Coordinates from ORCA-job NEB_product E -37.647204357870
  C           1.65683974813860     -0.15164292647822      1.61439533306913
  C           1.02394606488804      0.88118590437975      0.67693032118910
  C           1.34171500096205     -1.55180266453219      1.09292821541603
  H           2.74311206920981     -0.00517738879807      1.53010216855624
  H           1.08362577396180      0.59940413472674     -0.38648010282625
  C           1.23588502611351      0.15344292810090      3.06133408714203
  C          -0.06024206380365     -0.43550750219471      3.50320457192184
  C          -1.13570103368311      0.30028993216961      3.71646602021187
  O           0.53965315046982      1.90933430074283      1.03776070214116
  Br          2.66113256083565     -0.39249546426054      4.31738511784676
  H           1.19805007563564      1.24330062345505      3.15162228783136
  H          -0.06750410170818     -1.50170605809456      3.67731068971218
  H          -1.13636034841236      1.36588938131902      3.55623685135716
  H          -2.06156581068336     -0.14003162764114      4.04211633252946
  Cl         -0.40893800192668     -1.70683565201703      0.77217678010642
  Cl          2.20284651775270     -1.80791664697814     -0.45638071876010
  Cl          1.84680537224973     -2.83963127389931      2.19959134255559
