20
Coordinates from ORCA-job NEB_product E -32.651273730000
  C           2.43419589608935     -0.84447684583300      0.21267615062014
  C           1.53364892415696     -1.23997468278284      1.38123644103175
  C           1.54651353379296     -0.57083872730350     -1.00634500729846
  H           2.98685849943534      0.06462072232299      0.47239234946670
  C           1.64187293924398     -0.29905050054679      2.56919285532547
  C           3.44318559346763     -1.94366029977924     -0.13496093897721
  C           2.84747600286045     -3.24624547299168     -0.51960457009171
  C           3.18666433732242     -3.89371703256996     -1.62072739782668
  O           0.79684964813252     -2.18484672778073      1.35763464923892
  I           4.78396183311303     -2.26252582063180      1.58039984761529
  H           4.11044273090525     -1.58082955622514     -0.91903236045055
  H           2.11387363078076     -3.65256857959504      0.16176056708863
  H           2.74198010892796     -4.83840301467329     -1.87935930961031
  H           3.92195218061763     -3.50608492965073     -2.30840977464474
  H           0.95076635330676     -1.45034385937051     -1.23831221495355
  H           2.15681642454738     -0.32145206284015     -1.87144630994408
  H           0.87528902947767      0.26059432337270     -0.80354886762393
  F           0.73457588675601     -0.60527442103031      3.53843610534238
  H           1.45165629859782      0.73391171736224      2.25336086539324
  H           2.64152014846809     -0.37163422945322      3.01605692029871
