18
Coordinates from ORCA-job NEB_product E -41.224126458330
  C           1.57617538255156      1.74224915237481      0.16208160948464
  C           2.06551128334950      1.82594707680810     -1.28261784567880
  C           2.38822923545524      0.69567694475760      0.92980346712209
  H           0.53018621150204      1.41123697055317      0.15263810074143
  Cl          1.63437013183367      0.43006771768131     -2.25094218870377
  C           1.60885885758206      3.17219381104254      0.76600303165082
  C           0.61039314598537      3.35891602931358      1.89187842091243
  C          -0.68567735853345      3.15391471285209      1.75359333922191
  O           2.64773028483535      2.74128597526023     -1.75797060453895
  C           2.93477969051990      3.55990388597125      1.20183999719793
  H           1.34035523960971      3.86035338616485     -0.04870799385061
  H           1.01875771054967      3.70186697885331      2.83119201176417
  H          -1.13236636110273      2.83063401970446      0.82633337248080
  H          -1.36200157232569      3.30699627964634      2.57499571431947
  Br          1.66508393977773     -1.09523782383680      0.62297139764665
  Br          4.26997849606809      0.67593929313182      0.39262027280216
  Br          2.31365139948452      0.94951994157001      2.85920554745449
  N           3.96008428285746      3.89213564815131      1.57798234997313
