18
Coordinates from ORCA-job NEB_reactant E -41.225869675980
  C           1.90755118304002     -0.19839732761776      0.61675995781683
  C           2.08390299689373      1.07124475862628      1.01312633836233
  C           0.56244067608720     -0.79779437104328      0.65472859087885
  H           2.73470659132552     -0.79425718340665      0.27272651951212
  Cl          3.64594484011176      1.80216788148547      0.96044424854172
  C           2.23255845252454      5.06079587444412      0.54701991245924
  C           1.46069789648490      3.97674105021504      0.54568728226966
  C           1.18222760539716      3.15540605717182      1.76424726229144
  O           1.04870703303400      1.77435224626208      1.46152470420819
  C           2.46286763048732      5.82578507794145     -0.61404554595652
  H           2.72757492346898      5.41328647982163      1.44322421368747
  H           0.97485657074672      3.64042848463838     -0.36119949394833
  H           0.20325034675789      3.42315458915972      2.17781610736227
  H           1.94820710821844      3.30409890062835      2.53394652925423
  Br          0.57985538604162     -2.61492691192353     -0.01420782020820
  Br         -0.17194447397131     -0.83002331940213      2.48656360772647
  Br         -0.72014036554130      0.23424732409664     -0.43003045876886
  N           2.67353559889281      6.44929038890237     -1.55203195548890
