17
Coordinates from ORCA-job NEB E -36.611206454110
  C           0.84060080223008      0.23458187871224      0.68272132792415
  C          -0.03470133263783     -0.55896380494200      1.66573162449136
  O           1.83777547911807     -0.61644276969899      0.18385570345767
  H           1.27246761713336      1.09081793936172      1.21603441451501
  I           0.31672847663855      0.03817286091776      3.72424303412831
  C           0.00586131993091      0.79174627963897     -0.48708980821361
  C          -0.45624875364518     -0.16201482548210     -1.56467696057150
  C          -0.32558399778307     -1.47274084820398     -1.58069110393935
  O          -0.69238043771698     -1.50628023430642      1.43060556453772
  N          -1.21069073617271      1.44643387340809      0.06360369345932
  H           0.58089544692626      1.58270497780879     -0.98583433991224
  H          -0.92878826018412      0.36862778638294     -2.38255529808828
  H           0.13970888768012     -2.02076587347226     -0.78193062731378
  H          -0.66478452157465     -2.03949322883463     -2.43004761939313
  H           2.64191314032832     -0.54120717585142      0.70752724233897
  O          -1.52470219156347      1.16080519206539      1.19771915280874
  O          -1.79807093870766      2.20401797249589     -0.65921600022935
