17
Coordinates from ORCA-job NEB_product E -36.621226986190
  C           0.95199636568634      0.91034738104237     -1.00533755694068
  C           1.52414495909893     -0.47188754892402     -0.76551386369122
  O           1.90654056889684      1.88081413126457     -0.72150309957029
  H           0.08708915936701      1.11253949209798     -0.36408985453316
  I           0.10283945126411     -1.92807986599301     -0.07645182777128
  C           0.50289145717617      0.98780073172262     -2.49144323120243
  C          -0.55261669938392     -0.00570434875626     -2.86579881584620
  C          -0.40725248273402     -0.89325761157173     -3.83236990398897
  O           2.65676261075794     -0.76596624583402     -0.94063606114087
  N          -0.08605443136798      2.35816204013661     -2.68099225243003
  H           1.37451308887508      0.92435250375089     -3.15210157800090
  H          -1.47346157877445      0.07728522385382     -2.30472531632240
  H           0.50210004803212     -0.97378583116883     -4.40521035861479
  H          -1.19294351519739     -1.58466020065261     -4.07871444321427
  H           2.76693171715908      1.62028609586899     -1.07961917585820
  O          -1.01025646053181      2.65015245658110     -1.97201359843103
  O           0.40137574167597      3.03430159658151     -3.54507906244331
