19
Coordinates from ORCA-job NEB E -46.373142944600
  C          -0.25910750844965      0.01485856671295     -1.23893623386906
  C          -1.36928510527577      0.78633282996932     -0.84391138533146
  N          -0.56589950227574     -1.37400983796121     -1.57320112321191
  H           0.40640694636931      0.43897671106711     -1.98561090950117
  I          -1.40046516289568      2.84337206217607     -1.48932786008413
  C           0.70688750851979     -0.26710922946370      0.49691550803185
  C          -0.09468227701625      0.32816871593929      1.47415208354031
  C          -1.43115374927401     -0.10574986575405      1.55073284807064
  O          -2.13765847542799      0.47264102038548      0.08453898086689
  C           2.11362726607515      0.21303267711811      0.30371532147054
  H           0.63314953886605     -1.35147471060442      0.44060117062967
  H           0.14102932558805      1.33303368923448      1.80338261524067
  H          -2.08649180763305      0.37771695692411      2.26176438254206
  H          -1.62902014657559     -1.16129188906300      1.39862509885504
  O          -0.16383821167385     -1.74795954112179     -2.64541908351719
  O          -1.20659630034498     -2.02781280205361     -0.78341886960385
  Br          3.14514212713310     -0.22610684002924      1.92910892402821
  Br          2.98250258056802     -0.68633749216775     -1.20771749075880
  Br          2.21545295372308      2.13971897869183      0.02400602260165
