19
Coordinates from ORCA-job NEB_product E -46.418321095880
  C           2.86771847197385      0.19883745773567      0.87029754998034
  C           2.30821620149873      1.60174035636537      0.82565422651783
  N           1.69240395571854     -0.74769018867143      0.72368736687605
  H           3.52926766416428      0.00053105223082      0.02066360489715
  I           3.08036767495198      2.75462193738874     -0.83231523689027
  C           3.55899920144156     -0.19254620354449      2.19997723836114
  C           2.65438172217618     -0.02585428627987      3.39115588059353
  C           2.42601927488790     -0.99928645796928      4.25386647037014
  O           1.48508016904870      2.04857299175965      1.54367327631977
  C           4.87247621907487      0.56281978901215      2.42570886044985
  H           3.83573719427319     -1.25411053378813      2.10588611500400
  H           2.20128899568806      0.94620114095943      3.51730624390563
  H           1.78597082624776     -0.84791623303602      5.10379093316447
  H           2.86246099085658     -1.97956430310672      4.14854466522775
  O           1.77306075886956     -1.52701702878937     -0.18481463909193
  O           0.80677591677450     -0.64592624600081      1.52174350498625
  Br          5.77624671773279     -0.20611046235490      3.98074653133728
  Br          6.09150279988687      0.36787449853086      0.89649182265857
  Br          4.61592524473409      2.46492271955833      2.76683558533247
