19
Coordinates from ORCA-job NEB_reactant E -46.414472230150
  C           1.89606094614187      0.42805287422781      0.26648535342505
  C           1.12223440063178      1.05829858984948      1.16770703704726
  N           2.56420541984843     -0.80809186188879      0.44872299305404
  H           2.06430657819612      0.86456734082678     -0.70533662205610
  I           0.06488833347993      2.77552269345869      0.53005485239758
  C           4.18879678613720     -0.43104395715344      3.03792363153883
  C           3.21174129319595      0.46237201246534      3.06878624372557
  C           1.77350037034993      0.10033681455576      3.26885471937668
  O           0.90700810725327      0.88681347093244      2.45159345282333
  C           5.62849858307936     -0.13560972406788      2.87120037620340
  H           3.97427470896618     -1.48639069302905      3.16075559257552
  H           3.40721244704031      1.52071297143659      2.94535515052183
  H           1.46051945053546      0.34789570744020      4.28864379051005
  H           1.60821075295591     -0.96795803491982      3.08246730495617
  O           3.60195220414954     -0.96525960966294     -0.15838790270389
  O           2.05425366018495     -1.64435094467030      1.17654874411159
  Br          6.53200608682874     -0.45528434847954      4.60603933073901
  Br          6.41437579461999     -1.33979631926498      1.53413469516865
  Br          6.01185407640507      1.69081301794366      2.33695125658544
