67
Coordinates from ORCA-job A2S E -97.863172673550
  Ru         -0.40848286255913      1.92820216664350      0.07678123923304
  H          -0.50553816956348      3.46695000911774     -0.04834723598065
  N           0.91006196303902      2.27217272700198      1.64779889101487
  C           0.46767482749898      2.79153383272183      2.80824362759520
  C           2.22418583023614      2.00466766806014      1.52931608433192
  C           1.31834080196397      3.04094194416862      3.87538654887878
  C           3.12246592833065      2.24183730892090      2.56016460326498
  C           2.66946791031253      2.76286621106243      3.75884047165430
  H           0.91785858214468      3.45818799999629      4.78680022602550
  H           4.16544604294231      2.00905272179419      2.41477347276310
  H           3.34820934271675      2.95135391625166      4.57553402105444
  P          -1.96281357599753      2.08939094029940      1.74858181461824
  C          -3.55446619690006      3.10631055789888      1.54749767606904
  C          -2.32835987871856      0.55667751687887      2.82239024418052
  P           1.49953153858115      1.92425934522879     -1.06026937691260
  Cl          1.97307160401775      0.71585237483887     -2.55202116165814
  Cl          2.36882339492826      3.62012894522462     -1.69177188327803
  C          -0.98229499026124      3.14935497412860      2.90811745541797
  H          -1.10160204685209      4.16888366070746      2.51995696889482
  H          -1.33336702103585      3.12285201658281      3.94298795637700
  C           2.70347751703110      1.41240742790287      0.24529959108508
  H           3.73432689190063      1.69557706832725      0.01506746338561
  H           2.63885422781002      0.31608308526790      0.30844711337473
  C          -1.55909691265426      1.63623123003092     -1.33429088661920
  O          -2.26127539427587      1.42967001396997     -2.22884222589963
  H          -0.21393349178007      0.39410447430688      0.26461837254351
  C          -4.05038036082076      3.79200866097752      2.82158090753824
  C          -3.26680348072380      4.19246826572835      0.50899629966507
  C          -4.63159943310371      2.18929727163513      0.96635015144456
  H          -3.33741219309856      4.53342991365583      3.17442831363704
  H          -4.98079956037418      4.31227781699187      2.59466606738276
  H          -4.25125291882745      3.09285610261998      3.62463268337243
  H          -2.98298475364251      3.74606286107384     -0.44220110996426
  H          -4.15964660511946      4.79815389152842      0.35696658006891
  H          -2.46171925573622      4.85205765913755      0.82554013158958
  H          -4.20877367812562      1.59269233063379      0.15627008553657
  H          -5.04982009787767      1.52694870145309      1.71984119315824
  H          -5.44692641686872      2.78599488804246      0.55861768190146
  C          -0.97068360447484      0.07817635813569      3.34688785083008
  C          -3.25447773582102      0.76130628747593      4.01900752644390
  C          -2.89273593725829     -0.52671754199525      1.90299410379541
  H          -0.56913916582118      0.74920093452484      4.10480594464794
  H          -1.07683921900399     -0.90921838358752      3.79496910609964
  H          -0.25373017153528     -0.00895519834547      2.53117989203685
  H          -4.27755770156438      0.95803876442626      3.71172493824925
  H          -3.26159200629135     -0.15366153429926      4.61183242162097
  H          -2.91044641849850      1.56800572980074      4.66345901666563
  H          -3.92758784075665     -0.33551548818682      1.63641147609708
  H          -2.30137028915625     -0.57542335961163      0.98859173664266
  H          -2.84185655847436     -1.49694624880359      2.39489888974182
  C           1.29253041153987     -2.24016245928888      0.10175206175296
  O           2.31308738442197     -1.65972485550660      0.41767751172045
  C           0.40177771104265     -2.83037016808497      1.13097479960952
  C          -0.87760876793297     -3.30394774874567      0.84812383266054
  C          -1.64704268842875     -3.86498985013686      1.85089489432817
  C          -1.15396164155079     -3.96248653483815      3.14250878994605
  C           0.11210859431768     -3.48163648373125      3.43658505105799
  C           0.88150146980088     -2.91722974903707      2.43844605157755
  C           0.89051437822708     -2.40501741060899     -1.33683095032527
  H          -1.28499618696876     -3.22349209445571     -0.14705017810636
  H          -2.63789384329845     -4.23097063651289      1.62379928623218
  H          -1.75805014998714     -4.40878193527202      3.91942624833602
  H           0.49772090234617     -3.54972039961239      4.44352382412477
  H           1.87151594597001     -2.53949547726610      2.64849540690804
  H           1.72500475533554     -2.14032090928647     -1.98123046349621
  H           0.06464012923863     -1.72474836731882     -1.54570896974690
  H           0.57032113604535     -3.42309374064225     -1.54160015619575
