67
Coordinates from ORCA-job A3R E -97.835323585540
  Ru          1.71943324032877      3.88863048665190      0.12515599113468
  H           3.05385966615016      4.59104560372945      0.06805717490820
  N           2.61065502083051      2.55622080286122      1.49524590944231
  C           2.85089386799211      2.91015746319711      2.76599120154277
  C           2.90074553716486      1.28197239955987      1.08940170471972
  C           3.25164792462142      2.00688175205983      3.72734240960863
  C           3.27810918357220      0.31112777816782      2.05455074223710
  C           3.43714126385776      0.66846292672655      3.36039970823172
  H           3.42892204736530      2.33202525386486      4.73996605007519
  H           3.44968053474997     -0.69987516767891      1.72007599568934
  H           3.72740225686508     -0.05972216847075      4.10284325804330
  P           1.42437560931987      5.14016076930482      2.05199239604533
  C           1.91214036096678      6.97202412162490      2.06970005706180
  C          -0.13904593635578      4.87994611827106      3.10035919845776
  P           2.66533136858596      2.35993449268270     -1.31757904155849
  Cl          2.12569063580903      1.60729757843110     -3.08008411825624
  Cl          4.55175169659461      2.91820558788036     -1.84572490854770
  C           2.73363440765396      4.37113137062111      3.09546198411751
  H           3.67326509640227      4.84837208619179      2.79153941975174
  H           2.58465999591734      4.53837585086759      4.16455791503713
  C           2.78687682876329      0.96560813590356     -0.27044951534672
  H           3.09788531313579      0.00362603637166     -0.64918464289595
  H           0.76504285995585      0.62578608435685      0.39430895865447
  C           1.03744158346483      5.09784600351800     -1.08612429016380
  O           0.68875462108569      5.90455438691836     -1.83458672363349
  H           0.11129099983884      2.93990363497647      0.15287160376148
  C           2.43110912650780      7.46669301725836      3.42116956782507
  C           3.02939858076275      7.14955730033891      1.03869078782527
  C           0.71710347841992      7.80831519363093      1.61161328421477
  H           3.35430014775057      6.96379153559652      3.69778255245628
  H           2.64739009960015      8.53159203966000      3.34177297910514
  H           1.71024662389568      7.33570717429637      4.21992898235612
  H           2.67170482312596      6.91284937618698      0.03774214846888
  H           3.37244231650140      8.18314160168852      1.04716209831776
  H           3.88331166410089      6.50983271498351      1.25481430783497
  H           0.26448181996810      7.36114161080191      0.72677505385738
  H          -0.03421202156016      7.90149862628640      2.39122528528750
  H           1.04901606137458      8.81191291217613      1.34977837226598
  C          -0.15094487500678      3.38227913012925      3.43124186294679
  C          -0.23189513123615      5.65040658471780      4.41454938401210
  C          -1.33704607657253      5.22725502116353      2.21179314496980
  H           0.57639531229541      3.14581892604955      4.20539580038951
  H          -1.13229914230267      3.08948396513431      3.80429312632824
  H           0.07642988214001      2.76666526724331      2.56026544760252
  H          -0.35270354240114      6.71796385407231      4.25351201159876
  H          -1.10764318498713      5.30058552353876      4.96160185389331
  H           0.63900012104113      5.47894513918426      5.04379635905984
  H          -1.51183352697908      6.29882641591919      2.18367297953666
  H          -1.16390270111584      4.88763924817604      1.18847463080591
  H          -2.24313334495056      4.75420944585021      2.58774374622233
  C          -0.55916132236499      1.99632770178328      0.00790736758427
  O          -0.06944517042179      0.94927641311837      0.78675866237654
  C          -0.65316913142450      1.67983398473494     -1.46774733331592
  C          -0.84000583203811      2.70060457925766     -2.39147925313646
  C          -1.02123957475410      2.40698356085054     -3.72966245828143
  C          -1.02486015582343      1.08949989988508     -4.15713060234898
  C          -0.85402517815528      0.06847400563534     -3.23957873996067
  C          -0.67616007040423      0.36027070164894     -1.89889269315204
  C          -1.97748537058971      2.30338629767944      0.49420990258032
  H          -0.84221322725572      3.73127704817013     -2.06082539063302
  H          -1.15578464061319      3.20888566259346     -4.43979329271751
  H          -1.16104100340925      0.86080847525491     -5.20338893440739
  H          -0.86078686437408     -0.96107229944537     -3.56518877575282
  H          -0.56050982148065     -0.43935816633413     -1.18111148162587
  H          -1.99154022350733      2.45787095985598      1.56763760380322
  H          -2.60123911608534      1.44136210256464      0.26501808093926
  H          -2.38103579230705      3.17437806007440     -0.01381686725022
