67
Coordinates from ORCA-job A3S E -97.829971875100
  Ru          1.97711393507380      3.49837497253018      0.10583710170522
  H           3.34892992766399      4.11742944538928     -0.03567191388449
  N           2.71579973625352      2.46500443899440      1.77269619369926
  C           2.87609443719033      3.06821911036890      2.95973910506958
  C           2.95778736028337      1.11623774130585      1.65902877133312
  C           3.12585461347476      2.36951148237525      4.12106443788082
  C           3.17350578768108      0.35440996438554      2.84444083291878
  C           3.24141701103803      0.97298346705360      4.05558695412555
  H           3.24309457510230      2.88954512373579      5.05795526845771
  H           3.29887381167251     -0.71300601436678      2.74596357752655
  H           3.40788820760504      0.40430502166163      4.95860841512630
  P           1.63366550089115      5.15593954377088      1.68721583639016
  C           2.22213747147895      6.92106200268014      1.32535477290958
  C           0.00185396303744      5.22324044467508      2.66901498496837
  P           2.87643964585485      1.66153917975038     -0.93714354037814
  Cl          2.24921459261617      0.63140165547585     -2.51460809479149
  Cl          4.77890970239477      1.97404453404833     -1.57653683554570
  C           2.83161955470767      4.57164353372661      2.96214743118457
  H           3.81418729896735      4.92499870889602      2.62618499082488
  H           2.63383335100046      4.97454692527105      3.95800106966647
  C           2.97000080405444      0.53240138727324      0.39806778872338
  H           3.22735024083461     -0.50508750367546      0.25274528104598
  H           0.49704505315121      0.06544754496925      0.20954550416172
  C           1.36105908982170      4.39616751068733     -1.38165753064603
  O           1.00742455558135      4.96609981262536     -2.32026800168173
  H           0.44866053972895      2.52690375688450      0.29650287844866
  C           2.67641872842111      7.70074346345044      2.56039624780125
  C           3.41385565912978      6.81131998861461      0.37104982561979
  C           1.10672234316466      7.66538176799659      0.59053660046164
  H           3.52059344363295      7.21583422117779      3.04439267432750
  H           3.00145689484566      8.69183699442553      2.24547349305046
  H           1.88450363792182      7.83097749547078      3.28857880901876
  H           3.11247039321969      6.35253773457645     -0.56976932436782
  H           3.80540411804061      7.80555412831110      0.16109260948664
  H           4.21869150266490      6.21569946722935      0.79814131729848
  H           0.70757444028473      7.04075021403253     -0.20873058513040
  H           0.29915187580332      7.95158882413409      1.25908362213854
  H           1.50379268792439      8.57461842689774      0.14168054783143
  C          -0.08383178529849      3.87512451176802      3.38989511548440
  C          -0.15103830704255      6.32561411638492      3.71215761967873
  C          -1.13052925187499      5.31128237007824      1.64429927544113
  H           0.54691984373932      3.85463158199904      4.27559482289873
  H          -1.10800477019993      3.67532099202809      3.70287687789713
  H           0.22292385210308      3.06063193721893      2.73397697283992
  H          -0.23155015741866      7.30950271370130      3.25928860434871
  H          -1.06842321644102      6.14581703725381      4.27317898794840
  H           0.67455028718126      6.32185862090531      4.42060157780216
  H          -1.21274143487355      6.30953894439927      1.22390868953153
  H          -0.94708122841918      4.61185920932516      0.82712986822777
  H          -2.08312299964732      5.05697598320918      2.10763766551660
  C          -0.40903438680070      1.79815184548911     -0.00514343381993
  O           0.12757971618992      0.60654884330147     -0.50183393174439
  C          -1.24116236303355      1.54106991200234      1.23587269348788
  C          -2.54362241419556      2.00118453831121      1.37745466109231
  C          -3.26843700015492      1.71291311973698      2.52188079265322
  C          -2.70623403778485      0.96334213651998      3.53960829279484
  C          -1.40561120219560      0.50609470138793      3.41190406683084
  C          -0.68087343802469      0.79410897686670      2.27111672041114
  C          -1.16844036382359      2.42016587111303     -1.17356428078336
  H          -3.00533813063383      2.58448569345829      0.59748528401361
  H          -4.28141609070474      2.07619592374643      2.61454858815888
  H          -3.27560042738827      0.73859425879678      4.42889925785602
  H          -0.95035928605437     -0.07234227793149      4.20165206571692
  H           0.34402062618309      0.44760229985565      2.20599398182600
  H          -0.50207018540227      2.45510444957062     -2.03397747392885
  H          -1.51462828308675      3.42601140088630     -0.95259044621882
  H          -2.01359005711069      1.78422377180822     -1.42829403273685
