67
Coordinates from ORCA-job TSA2S_3S E -97.817671147980
  Ru          0.56127757562804      0.94555520199723     -1.53163321218409
  H           0.46130918946426      2.46432373288213     -1.65371083116783
  N           1.80583870467570      1.25519466935593      0.12525502691367
  C           1.32101277928273      1.70988220933302      1.28545422876483
  C           3.10875645471434      0.89205379639633      0.02935376125041
  C           2.09739948158243      1.76557331250824      2.43233993775542
  C           3.93011353733519      0.91356368080127      1.16867175800528
  C           3.42058081010414      1.34147808781398      2.37137163871133
  H           1.67670184853068      2.13770106876890      3.35278864734626
  H           4.95616784429561      0.59426094148030      1.07699307127356
  H           4.04034655853004      1.36302700473582      3.25478001021847
  P          -1.08725783764062      1.21595951709471      0.06446050005792
  C          -2.55526301919691      2.36454948557191     -0.28936004341636
  C          -1.68304821720866     -0.25742151038428      1.11030058376873
  P           2.57187718971649      1.11864516392860     -2.58275136127690
  Cl          3.18266294287091      0.17416442997732     -4.20587905223224
  Cl          3.31565660165201      2.94667873381189     -2.95984459559501
  C          -0.09718283467953      2.19825468007270      1.28444631266022
  H          -0.09497272453108      3.22265136225874      0.89268514857517
  H          -0.52626417139044      2.20433457416404      2.28886641568423
  C           3.59918818524988      0.45326692933862     -1.25548787699030
  H           4.67774544126326      0.48496411632310     -1.39462687832028
  H           3.24903671244001     -0.82545571971842     -1.49038651398210
  C          -0.52131963951334      0.68422930412870     -3.00253898889386
  O          -1.19070994950050      0.55992512787189     -3.93242815734429
  H           0.92970360580505     -0.79524202020450     -1.38406198130721
  C          -3.09194494757523      3.09643411036679      0.94211384590157
  C          -2.09258196250574      3.41884119430856     -1.29712599945437
  C          -3.65638826080694      1.54000005994362     -0.95759710299810
  H          -2.34571536956459      3.76992435860356      1.35647362326155
  H          -3.94850244295806      3.69894054287455      0.64155646807794
  H          -3.42271853789832      2.42052533589654      1.72152369658400
  H          -1.78486815281459      2.95098031056081     -2.23067407096884
  H          -2.91296301403379      4.10367241460376     -1.50710139500065
  H          -1.25671879238664      4.00238823743757     -0.91672316946031
  H          -3.22799221595421      0.91644456559888     -1.74291513616996
  H          -4.18110878879562      0.90936467358754     -0.24513930379530
  H          -4.38850367638108      2.20369389745973     -1.41529701412415
  C          -0.42090881450691     -0.79174838974704      1.79225444456249
  C          -2.72527490905420      0.01024617831589      2.19178313714118
  C          -2.20141504077879     -1.30980451167293      0.12880842304839
  H          -0.12362301548210     -0.16740774042227      2.63250052606649
  H          -0.59373951411432     -1.79896550063846      2.16834892052164
  H           0.40960750593381     -0.84874251573270      1.08839809170695
  H          -3.69263541325171      0.27328935011202      1.77385328622371
  H          -2.85710127753590     -0.90160252149629      2.77439195227994
  H          -2.40264334579282      0.79322268796498      2.87507593848182
  H          -3.19560933538853     -1.06592004421817     -0.23440579073644
  H          -1.53009230979673     -1.37986680194759     -0.72911384036920
  H          -2.24484747735900     -2.28553679315961      0.60983289877139
  C           1.40641522180743     -1.95120225412910     -1.67474289994134
  O           2.70605975873729     -1.87461580819076     -1.94815477762961
  C           1.14297242768939     -2.79435384168310     -0.43858390439912
  C           0.09875432075332     -3.70569964025576     -0.34419683892926
  C          -0.04249022391183     -4.49669156558617      0.78372701440688
  C           0.85345988289201     -4.39211477910347      1.83275342499765
  C           1.90176706792076     -3.49149415529506      1.74563226733354
  C           2.04443173604550     -2.70413673278465      0.61969569484825
  C           0.59846115401487     -2.37759107213821     -2.90618090540134
  H          -0.60810958116191     -3.81848595912472     -1.15067928350159
  H          -0.85739712782096     -5.20479598714531      0.83835973843159
  H           0.74067400239238     -5.01333915608878      2.70939800428910
  H           2.61264271553708     -3.40498556002922      2.55459042506095
  H           2.87371636458980     -2.01390258491673      0.55050077027902
  H           0.89722670858563     -1.75819904957317     -3.75042094622585
  H          -0.47411647880221     -2.27691019355699     -2.75762128890274
  H           0.84446409005375     -3.41197263930661     -3.13995647254286
