67
Coordinates from ORCA-job TSA2R_3R E -97.822478702050
  Ru          0.19160828557740      0.78864143013153     -0.85756460382840
  H           0.05675502344655      2.30807908333266     -0.91298684071881
  N           1.71128972968850      1.12874296154199      0.58738393941536
  C           1.41666089289870      1.62205369289497      1.79645062380477
  C           3.00083625007903      0.87055873630087      0.27222001740752
  C           2.38513936739555      1.82223239021605      2.76597479680292
  C           4.01882537840488      1.04891707386489      1.21904282026772
  C           3.70989183497426      1.51758212709673      2.47302208507603
  H           2.10792156264476      2.21718199274190      3.73065595147785
  H           5.03385727183916      0.81409052968540      0.94218329635564
  H           4.47990307106266      1.66035642057605      3.21565781380843
  P          -1.14088114327498      0.98118581198365      1.01917147669346
  C          -2.70530912644193      2.05316480397373      0.98702779815547
  C          -1.42723459775428     -0.54437166398214      2.11593337786657
  P           2.04128006456896      1.01633854754825     -2.18328748494707
  Cl          2.54370797320061      0.30025208146460     -3.96171206971647
  Cl          2.63599392197018      2.92495259556944     -2.43649871981264
  C          -0.00758754638390      2.00888059155329      2.05599057915910
  H          -0.13974879456573      3.03719969357751      1.69866514449590
  H          -0.24761349872871      1.97449279696762      3.12123528054319
  C           3.26477021549065      0.33112199345363     -1.04961824490927
  H           4.30011953671080      0.35715335640731     -1.38193570507561
  H           2.91061182473984     -0.94376383698729     -0.83272364495459
  C          -1.15112507019385      0.65397958491029     -2.11140804291409
  O          -2.03047937009915      0.67671603388671     -2.85845436586805
  H           0.48630399458530     -0.98940938813920     -0.84995157487097
  C          -3.02504212957228      2.73873710718390      2.31703033866960
  C          -2.49207552017234      3.14351748901130     -0.06541022777931
  C          -3.88015160501308      1.18667537566690      0.53228235788982
  H          -2.26182073666183      3.46653006574043      2.58089835741046
  H          -3.96793487308753      3.27456655783225      2.21227308648671
  H          -3.13442515701471      2.03669058400320      3.13530051691447
  H          -2.36073757934216      2.70776073057868     -1.05362147739249
  H          -3.36170411437693      3.79877396116341     -0.09006845552187
  H          -1.61791950969305      3.75300356013363      0.15478495919094
  H          -3.58811265002195      0.58052614110941     -0.32548338833795
  H          -4.23253945015864      0.53625177975969      1.32833547425072
  H          -4.71176664425070      1.82129557169324      0.22951155680316
  C          -0.02223219580759     -1.06654484576093      2.44028394084712
  C          -2.16729606970028     -0.32759109138875      3.43317369186691
  C          -2.17450075759774     -1.57408060140129      1.26473996745078
  H           0.47915509934533     -0.42886282760266      3.16685625065426
  H          -0.08723791307553     -2.06560358647075      2.87078191978074
  H           0.60471353456058     -1.12754129943826      1.54944051208447
  H          -3.21408135388876     -0.08314806807355      3.27515523748257
  H          -2.13108359808507     -1.25336812622523      4.00757744674677
  H          -1.70355910517279      0.45087934782594      4.03569818693832
  H          -3.24466160994834     -1.38884384364286      1.26162618206956
  H          -1.81920602502579     -1.53739960803790      0.23329655992230
  H          -2.01365631034132     -2.57888649145339      1.65189998087812
  C           1.14387376912844     -2.08038667207136     -1.04648065982332
  O           2.30111412941466     -2.01423882946566     -0.40892777530154
  C           1.23393540292355     -2.23779962956769     -2.55324155617289
  C           0.15360768475022     -1.98935829666148     -3.38797610094141
  C           0.25140416052227     -2.22420194248562     -4.74661201944353
  C           1.42641523097273     -2.72583446074056     -5.28234327499802
  C           2.49911086228887     -2.99899252669936     -4.45191981330575
  C           2.40239257449661     -2.75991628234059     -3.09312960563418
  C           0.26397934749438     -3.22363191090612     -0.52451173411550
  H          -0.77074642367393     -1.60957633096996     -2.97198458697731
  H          -0.59189364542882     -2.01476166177785     -5.38822516980916
  H           1.50260585894289     -2.90541081602663     -6.34472636186928
  H           3.41548075861314     -3.39734881435367     -4.86255632681141
  H           3.23099059961842     -2.97052892781603     -2.43227005402172
  H           0.18677172745452     -3.18662447411076      0.55732948577455
  H           0.75769527117478     -4.15529343740365     -0.79790953080912
  H          -0.72435808642547     -3.20576230937990     -0.97535159476055
