20
Coordinates from ORCA-job NEB_product E -40.719746977130
  C           2.62593850622257      0.55220123352395     -1.30698516201071
  C           1.45797408442542     -0.42341069659442     -1.46171369684055
  C           2.40188179999932      1.43764838328120     -0.08176045858778
  H           3.56287621163593     -0.00734724516520     -1.17981154099724
  O           1.72601051512336     -1.49893194157028     -2.21068196803438
  C           2.74827396958421      1.37679060717558     -2.61197485539523
  C           1.85446143350351      2.57748662539033     -2.65436375604421
  C           0.67655743533292      2.57468504536324     -3.24858458735700
  O           0.37757305985451     -0.23988771616791     -0.98905105078923
  N           4.18987527585596      1.77403831677922     -2.79408082494536
  H           2.53498355994171      0.72094518005394     -3.46745821090155
  H           2.23606815946250      3.45751297366176     -2.15736860181986
  H           0.28670298907559      1.70276325314627     -3.74828191564661
  H           0.04576501381095      3.44529227953603     -3.24708935347632
  F           3.40650684181404      2.36444551189209      0.01138594125252
  H           2.42383434205300      0.84094052896209      0.83446207482086
  H           1.45378709377844      1.97737931503587     -0.15145317143418
  H           2.65180549601386     -1.56621825329646     -2.48584324079126
  O           4.99970823819310      0.89444821428718     -2.62265738083760
  O           4.42441597431908      2.89541838470552     -3.14228824016431
