16
Coordinates from ORCA-job NEB E -30.828647470710
  C          -0.15832440788195      0.98894969505514     -0.60574439724062
  C           0.05604739093714      1.95124715939674     -1.77925386304826
  O           0.43414684613239      1.33342970990445      0.64052780203659
  H           0.26639895796448      0.03464997026459     -0.94673820702415
  O          -1.05614246313152      1.90160098536291     -2.56836211159883
  C          -1.48693893686966      0.98549388389233      0.10040883699836
  C           1.25775245471040     -1.72910870728541      1.01115138466935
  C           0.39484859909909     -2.59927784029236      1.48988730022592
  O           1.03572917680412      2.56155613203296     -2.04925683494011
  Cl         -1.94595511719126     -0.55910243182373      0.57493247614583
  H           1.39752667564674     -0.71528276080194      1.36635174052587
  H           1.77921689708349     -1.91530416039272      0.07709005821872
  H           0.23509885511219     -3.55705615950491      1.03124656723930
  H          -0.20792300669837     -2.39708854407217      2.36771047294954
  H          -0.21117804766589      1.77751667298986      1.23847196464264
  H          -1.79030387405133      1.93777639527435     -1.94842318980015
