17
Coordinates from ORCA-job NEB E -30.201984332080
  C           1.01968698793128      0.33723351342769     -0.50097804789916
  C           0.15781231544751      1.41568274524559     -0.31566769792604
  C           0.76916285483801     -0.60119337453740     -1.65274952912006
  H           2.07117849680512      0.51323251384991     -0.29919871746158
  Cl          0.76065587673588      2.73096873952659      0.70918772431725
  C           0.42094952633365     -0.70527829946972      1.06296821238048
  C          -0.95182475623540     -0.79910560268542      0.88345411554170
  C          -1.69536934698705      0.41501867579741      0.87073126665387
  O          -1.11060402765692      1.28644381040387     -0.37604035148596
  F           1.14839986350777     -1.83610563663929      0.96740650897555
  H           0.84809838376754     -0.05085586839060      1.81823714931424
  H          -1.33401862893778     -1.66004720522711      0.35655897630008
  H          -1.50774103003141      1.10339276182520      1.69132089221265
  H          -2.74634080925262      0.33345729719660      0.62443765675651
  H          -0.29386497725567     -0.67435737671543     -1.86551183198998
  H           1.16776668889137     -1.58913261452272     -1.43639467299580
  H           1.27605258209870     -0.21935407908516     -2.53776165357375
