17
Coordinates from ORCA-job NEB_product E -30.245468403430
  C           1.65756558652866     -0.97736663820525      1.41374788704335
  C           0.92618837306972      0.31415342154633      1.20731760927035
  C           1.33192917485903     -1.96074528846289      0.29144160417094
  H           2.73352645476731     -0.77303525655426      1.43533443207905
  Cl          1.51235447975313      1.59318809959330      2.29100964409582
  C           1.29035222343425     -1.55669188993447      2.80507217813018
  C          -0.14333193929849     -1.98730757060966      2.88490224095236
  C          -1.12029622534715     -1.19210364489797      3.27541604227549
  O           0.05126031535825      0.55041272485107      0.44798961310158
  F           2.11291165461440     -2.64114554535478      3.02943431470422
  H           1.53212694640084     -0.82426814090979      3.58542206590691
  H          -0.32575159121197     -3.01081130752893      2.59182304486690
  H          -0.94075446225131     -0.17307110736131      3.57651953476399
  H          -2.14232532249520     -1.52587286175074      3.30353293407384
  H           0.25640316303965     -2.08266657292451      0.19474737055403
  H           1.78575535827502     -2.92421264695531      0.50779189502734
  H           1.72218581050386     -1.59205577454084     -0.65340241101635
