17
Coordinates from ORCA-job NEB_reactant E -30.223163505770
  C           1.80056741388571      0.00666692620171      0.01765304880912
  C           1.13347842060590      0.05101189157569      1.16492022854212
  C           2.12457783011379     -1.26293407303238     -0.70031262153005
  H           2.13263195380434      0.92925263975028     -0.42895025596103
  Cl          0.80913715443306      1.58829155102269      1.91865637235628
  C          -0.22499829459868     -2.81961047817268      4.59163262655696
  C          -0.47420394412302     -2.31142914476235      3.40084386585410
  C          -0.05664041176606     -0.93621031888274      2.99456179109932
  O           0.68915557484314     -1.05715361087238      1.79488852198167
  F          -0.63089391591671     -4.04946195806642      4.93287561696416
  H           0.29011023880328     -2.32452646850015      5.40270513369157
  H          -0.98993444589527     -2.89550497331633      2.65392705036014
  H           0.54929204984152     -0.46556521144551      3.77871386456569
  H          -0.94749476134833     -0.31601460180753      2.81810067298801
  H           1.74476473105430     -2.11670264550064     -0.14883226932927
  H           3.20304676556869     -1.36259049907039     -0.81530783128395
  H           1.68270364069434     -1.25321902512087     -1.69587581566483
