23
Coordinates from ORCA-job NEB E -36.515597676870
  C           0.21952124078824      0.41752261171714      0.92656605934895
  C          -0.98357131345739      0.03982145206870      0.31422004124628
  Cl          0.35761991708487      2.05141935036612      1.53728297836276
  H           0.71047468782964     -0.28353220710372      1.59204873418324
  C          -1.35256735761176     -1.42421643550817      0.27967084545109
  C           1.33192393582096      0.45589356230179     -0.65790869803994
  C           0.66782534311094      1.39329025131771     -1.45240510828333
  C          -0.65396999063605      1.07800005216766     -1.87256678255162
  O          -1.54162597192821      0.86585620098072     -0.52055311278414
  C           2.72087257042390      0.75101032503136     -0.15539357550812
  H           1.21665976002209     -0.59204763742736     -0.92326576555412
  H           0.93907260937348      2.43372891853296     -1.35067267101266
  H          -0.78969737996407      0.10694792904188     -2.34270142087086
  H          -1.20132295921867      1.86356365930414     -2.37833848038105
  C          -1.99903703179929     -1.85742538645289      1.59602063229617
  H          -0.45902505603865     -2.03053467319187      0.10274503789608
  H          -2.05447206436098     -1.58253324142511     -0.54072259219482
  H          -1.31171812944650     -1.71236461438347      2.42555008752610
  H          -2.27271285748249     -2.90866970980096      1.55151577948161
  H          -2.89568034964028     -1.27284874628524      1.78504291828140
  F           3.17955192638341     -0.29387223848185      0.61000880295566
  H           2.75367591440963      1.64885967795956      0.46886634776255
  H           3.41820255633717      0.85213089927090     -0.99501005761125
