23
Coordinates from ORCA-job NEB_product E -36.558623004210
  C           3.09327534483693     -1.47243408931947     -1.82672824233448
  C           1.57448624676659     -1.62462193518907     -1.71585162543785
  Cl          3.64857845492087     -0.62734690085217     -0.34330981756538
  H           3.55440493558977     -2.46464311371999     -1.78852380383519
  C           1.10754235172831     -2.49230521178091     -0.57281607400554
  C           3.53654996114064     -0.72011109517151     -3.08067576069201
  C           2.99864192316475      0.68260213980457     -3.13414529992284
  C           2.39076563009163      1.19541660289524     -4.18494333562944
  O           0.82720881047170     -1.13224851446315     -2.51602481821299
  C           5.06817079894756     -0.69450028593682     -3.16341487918301
  H           3.15951433302181     -1.27845057762855     -3.94500826712528
  H           3.17518193663704      1.27809051635102     -2.24885558050068
  H           2.21141045169260      0.61719637267820     -5.07539989260031
  H           2.04252099945967      2.21330764599323     -4.19512818911847
  C           0.95313748088580     -3.93086756143783     -1.07796198644977
  H           0.13586882849289     -2.12743440627898     -0.23776431842907
  H           1.81338696225246     -2.46101129498394      0.25586547285583
  H           0.26420785131417     -3.96195730258339     -1.91835854812170
  H           0.56121929431693     -4.55967058129726     -0.28302776063881
  H           1.91018341011324     -4.33682126756087     -1.39813173442300
  F           5.46297204774204     -0.31404355768737     -4.41847416515562
  H           5.49665729723851     -1.68818466326977     -2.98836773879546
  H           5.49621464917408      0.02763908143877     -2.46145363467894
