20
Coordinates from ORCA-job NEB E -41.885312208720
  C          -0.13650140411384     -0.13572649587696     -0.32876721997141
  C           0.52619912347943      2.16854813363996     -0.94124895456460
  C           0.96676980703607     -0.83159910201129     -1.05193614538392
  H          -0.78380477329526      0.47703626902692     -0.92648699367608
  C           1.02148119299203      2.30795943933334     -2.19643821225032
  C          -0.12660593655258      0.13173359784348      1.13127735458407
  C          -1.09174425060505     -1.01326457297827      0.76493517642409
  C          -2.46145226719072     -0.87197561290493      0.74013529055696
  O           0.23657756826478      2.71457326970762      0.06773454820865
  N           1.03523683517631     -0.09777655864198      1.89379476301794
  H          -0.64245011563856      1.03818409631034      1.44372511776231
  H          -0.69894039758600     -2.01013755494679      0.90533731343947
  H          -2.92334235250345      0.09549894393207      0.65183426902809
  H          -3.10615522900497     -1.72921582175073      0.76996804473566
  Cl          1.25169039363155     -2.51822132457464     -0.52483716128064
  Cl          0.60704957027737     -0.88757997198754     -2.79238866212237
  Cl          2.56091131939541      0.00590885338814     -0.82727651737790
  N           1.37307660975325      2.17865645802705     -3.30044260173823
  H           1.54002503654536     -0.93381097180974      1.63308774037906
  H           0.85197926993889     -0.08879107372621      2.88799285022919
