20
Coordinates from ORCA-job NEB_product E -42.001400254660
  C           1.30179082871833      0.11790300208496      1.73689063953811
  C           1.71462491953735      1.57249934073028      1.53341919834325
  C           2.21967602917778     -0.87459075312626      1.03893058497140
  H           0.30980610906262      0.02342901160465      1.27556784984323
  C           2.80597256008240      1.86188585155960      0.61899032334679
  C           1.08010540585562     -0.11788856724325      3.27241507042373
  C           0.08133563396626     -1.22752749250977      3.51544471528008
  C          -1.20944562849227     -1.12422280907193      3.26108161579238
  O           1.14621401494399      2.47922092373265      2.08281196839787
  N           2.34742681853568     -0.28512557349818      3.94554890117754
  H           0.63840045767653      0.82356659452551      3.62512330832621
  H           0.48476929849592     -2.13091648901892      3.95179219457395
  H          -1.63766590542856     -0.22905106134861      2.83920210436619
  H          -1.89362878004028     -1.92909610001638      3.46408240231492
  Cl          1.75673937977080     -2.54766929489289      1.40567080762257
  Cl          2.05832836775644     -0.65990223014981     -0.73826619683726
  Cl          3.92668968938280     -0.65320843968432      1.46818160484803
  N           3.63332044655747      2.23998040014169     -0.07602632420789
  H           2.68767506800235     -1.23664740020478      3.86116641286044
  H           2.26576528643879     -0.06263891361425      4.92887281901844
