20
Coordinates from ORCA-job NEB_reactant E -42.012911559750
  C           2.06413865568605      0.09189789592837      0.35187393429787
  C           1.34559874156282      0.92687465925155      1.13697304811580
  C           1.86357369054153     -1.33348522863787      0.00733674763427
  H           2.91661069861957      0.53959987862908     -0.13918903634712
  C           1.81822613321360      2.28341326006037      1.12684883712999
  C           0.37713038045877     -0.18346496505425      5.04909187979401
  C           0.78600731253066     -0.52680816228382      3.82679888475317
  C          -0.07614728270960     -0.39186763683542      2.61723500583707
  O           0.25655875098855      0.80861673274270      1.89349919435342
  N           1.10396761315158     -0.35197866117285      6.19910449877614
  H          -0.62941836627326      0.18071294191256      5.20663040365537
  H           1.79390680150155     -0.88099695307282      3.66654043996009
  H          -1.11897757131553     -0.23270865400226      2.89843239400458
  H          -0.00378887882390     -1.26680924880172      1.97161556697498
  Cl          2.28933799661116     -2.44968352303000      1.35409365041708
  Cl          0.18036908899657     -1.68084858512038     -0.50380933739203
  Cl          2.92097121560035     -1.76298640748093     -1.36236500882926
  N           2.19114804610799      3.36489482633991      1.12351174371293
  H           2.09104473871955     -0.51790524956703      6.08030041276646
  H           0.86504223483199      0.22883308019479      6.98467674038518
