20
Coordinates from ORCA-job NEB_product E -43.104200542340
  C           2.85665905679363     -0.00194717602256     -1.30527362578403
  C           1.46613299458547     -0.46121885303872     -1.01551779251627
  N           3.18498380517455      1.14246009538221     -0.39974327054674
  H           3.57694997225750     -0.80041980700923     -1.09746388367684
  N           1.16697701515362     -1.83851960634312     -1.67145096992030
  C           2.98050302687224      0.42025843454484     -2.82153845299249
  C           1.70717091623548      1.09072358636755     -3.27218638707702
  C           0.88069515355808      0.55563584681233     -4.15121894846955
  O           0.59202730928182      0.05844151289391     -0.41415111011195
  N           4.16804653244421      1.22970249190195     -2.95296537639224
  H           3.12844062508840     -0.51125754296350     -3.37769098935492
  H           1.51427770246189      2.05857373069053     -2.83061918605092
  H           1.06751942404588     -0.40812112767065     -4.59827117516040
  H          -0.01815814791088      1.05895601560798     -4.46118553391211
  O           3.86332943091548      0.87098339464372      0.55257666000803
  O           2.74167458082877      2.22134425639212     -0.67991588900678
  O           0.03692964392434     -2.21837887910162     -1.56915445978732
  O           2.08627606209896     -2.38925608221104     -2.22631424852097
  H           3.98065941475128      2.20417739508688     -2.74420759295857
  H           4.57570548143928      1.15966231403645     -3.87390776776862
