20
Coordinates from ORCA-job NEB_reactant E -43.118758836240
  C           2.14989524536452     -0.03499082317018     -0.51598372655893
  C           1.44178794324190     -0.77133915290799     -1.39485138883411
  N           2.08526755844419      1.37621295099570     -0.36885654946986
  H           2.83461679922334     -0.52942806559319      0.15816657816177
  N           1.59852557271463     -2.24879006146510     -1.28561504579882
  C           3.12952783567854      0.46127438499969     -3.79666010381986
  C           2.18023653227041      1.26461250383476     -3.30094227749577
  C           0.77575701542741      0.80321495055387     -3.08097074888297
  O           0.70452659734806     -0.48139466381917     -2.43462015330160
  N           4.44631587758421      0.78874920438763     -3.91129838345789
  H           2.89110415092202     -0.55736229786765     -4.07729541052415
  H           2.41370761975457      2.27931914356705     -3.01924819139258
  H           0.23754146688896      0.62678450182749     -4.01693890539635
  H           0.22881200681744      1.54096585440030     -2.48246480843130
  O           3.10028422779851      1.93874204797772     -0.01844581980603
  O           1.01550330080899      1.92340724140015     -0.56282368141073
  O           1.27536664976584     -2.89294308287606     -2.24742501988652
  O           2.04036950995652     -2.67620878452232     -0.24831911075202
  H           4.69349507344029      1.75684921020771     -3.78551792682086
  H           5.01865901654967      0.26422493806961     -4.54878932612142
