23
Coordinates from ORCA-job NEB_reactant E -43.856935611100
  C           2.01410344164245     -0.47846139053057      0.15664587365925
  C           1.97676130428532      0.49603849863163      1.07276174528967
  C           1.27944471553888     -1.77037707793341      0.25142570381889
  H           2.64130983412159     -0.31668641751623     -0.70302155330228
  O           2.66206082973773      1.63500673051369      0.82592881105000
  C           4.04310586968170     -1.01573631864553      3.21884470627853
  C           3.03082318121522     -0.27677243607261      3.65443335794370
  C           1.61514985289504     -0.49110338571878      3.21680165050505
  O           1.25163867107962      0.47868387423635      2.23251764781678
  N           5.39539174649110     -0.71476973257505      3.60193340916154
  H           3.95001677376537     -1.87816221518872      2.57540122089796
  H           3.23354105229110      0.57317609553087      4.29512842462078
  H           0.92013822110138     -0.31220810908224      4.04036782970355
  H           1.48855570017019     -1.50850088622302      2.84176507535516
  F           2.01913442867891     -2.72681902558172      0.94510680555314
  H           1.10369861603811     -2.19502560624254     -0.73949919214966
  H           0.33319261775676     -1.67083585420270      0.79294636314287
  C           2.55389021252268      2.70326113421518      1.75014197177203
  H           3.04036833303157      3.54855959966732      1.26853345981412
  H           3.06986690926508      2.47235364478472      2.68576318312679
  H           1.50942487374696      2.94253518714478      1.95916012534052
  O           5.59022936104599      0.27113365192901      4.28010044404887
  O           6.25305345389724     -1.47438996114042      3.21341293655274
