23
Coordinates from ORCA-job NEB_product E -43.891409511590
  C           3.09167686302994     -0.29102494917681      1.17802272242758
  C           2.10289020216942      0.86285075997430      1.26782094946164
  C           2.48016543990295     -1.40448072618536      0.32638442681848
  H           4.00729100777267      0.07931319267078      0.69810180830261
  O           2.57154999548143      1.84567532356733      2.03532049052983
  C           3.48845529355683     -0.77406879340592      2.58653986247265
  C           2.43122975116927     -1.59069787396158      3.26229844729835
  C           1.61995916229901     -1.10190299743628      4.18067606099667
  O           1.03871287462556      0.88837516736947      0.71310138012254
  N           4.77181244049483     -1.55268991638519      2.49313998684795
  H           3.73578386360229      0.11082009769963      3.18599826527330
  H           2.36898032389717     -2.62327550226610      2.95078191457412
  H           1.68285306101898     -0.07758139906538      4.51155230566184
  H           0.85657439426682     -1.70549988355653      4.63817119523923
  F           3.30442997571885     -2.49780301163724      0.31996436041123
  H           2.36009567345107     -1.07768537090278     -0.70975881234128
  H           1.51334357918909     -1.72357205524931      0.72602236636109
  C           1.73155871909138      2.98713850306252      2.17805511129191
  H           2.25856210731310      3.66930377692633      2.83944706148999
  H           0.77055388351524      2.69653216458933      2.60596734572052
  H           1.55782419041873      3.45100837407989      1.20598126788066
  O           5.63042106022625     -1.09227043889998      1.78499967448039
  O           4.86767613778911     -2.53786444181113      3.17311180867871
