23
Coordinates from ORCA-job NEB_reactant E -53.090728083060
  C           1.48453598634304      0.19210436901323     -0.13526711372791
  C           1.38405516184799     -0.17645672531355     -1.42162943205394
  C           2.12973696123520      1.36867447788737      0.50164529005645
  H           1.03233238391825     -0.45224355282352      0.60055266559424
  C           0.66990657910720     -1.45044698474705     -1.77472062071454
  C           2.93780940857443      3.13006034041260     -4.49210338340288
  C           2.89432996848063      1.90648268373662     -3.98974033342370
  C           2.56947968884120      1.60979760139569     -2.56074203462190
  O           1.83106238007652      0.39732654093031     -2.54397845970306
  C           3.29060787881245      3.47660286086030     -5.89253419472785
  H           2.72427281503925      3.99528668357147     -3.87947824772304
  H           3.09988132436309      1.03762030885010     -4.59741950495638
  H           1.99314273289523      2.42766545210687     -2.11889680408118
  H           3.50957328661111      1.48681857371977     -2.00674651122136
  F           3.46252456101319      1.47038690489288      0.28227482678591
  F           1.61923315638452      2.56530616456703      0.12590456221284
  F           1.98697126752003      1.31777420815788      1.83277512223790
  H           1.39356192986422     -2.18010686354375     -2.13292932240198
  H          -0.03050982029900     -1.25597664995126     -2.58314687816765
  H           0.14135249102214     -1.86010481174594     -0.92218867806710
  Cl          1.94889895575715      4.40534156647018     -6.62483117388807
  Cl          4.74772536580907      4.51891121577232     -5.89060941753437
  Cl          3.61661553678310      2.07557563578045     -6.91709035647043
