23
Coordinates from ORCA-job NEB_product E -53.103744638860
  C           2.03295762636425      0.74896097260126     -2.24674143500638
  C           0.56606980264704      0.32758886434236     -2.52773280108650
  C           2.12977990641386      0.98128580509595     -0.73902131404295
  H           2.73186007687844     -0.05590006621827     -2.48821453391958
  C           0.36743364010991     -1.14367071600727     -2.70568957968444
  C           2.37973293337463      2.03762561132163     -3.02136087256357
  C           3.55488599945621      2.77537807128808     -2.43684864241003
  C           3.46093357675708      3.98728005845935     -1.92549452513194
  O          -0.30777635306228      1.14734455546954     -2.53339290925870
  C           2.66843559723074      1.71042480212558     -4.48921127183766
  H           1.49418555649837      2.68584164368723     -2.99312254708895
  H           4.49669047700233      2.24667211926654     -2.45774973590951
  H           2.52554621013036      4.52047629504963     -1.89052575663279
  H           4.31740736363795      4.48831246462154     -1.51065398703881
  F           3.39724975672310      1.07104945744295     -0.31097111877428
  F           1.50158898132578      2.08098168885988     -0.32877983249476
  F           1.59485708942257     -0.04841102801100     -0.05839263695040
  H           1.01174818779134     -1.52036486355309     -3.49634571960617
  H          -0.67192114789825     -1.35087466365254     -2.94427704831259
  H           0.63324211718918     -1.65187257659357     -1.77969487139012
  Cl          3.01141880589926      3.21279982901573     -5.37291286366524
  Cl          4.07639985593377      0.63269303138401     -4.65096486474233
  Cl          1.28157394017437      0.91027864400448     -5.26700113245230
