25
Coordinates from ORCA-job NEB_product E -44.432013619050
  C           2.54184466056657      1.30900469871533      1.22854275991244
  C           1.74555048493423      2.19114875394889      0.25741865708713
  C           2.17440649147241     -0.16197485199283      0.96515281361144
  H           3.60466668499005      1.44412139803043      1.00018152877326
  N           2.17974715078826      2.12123584236487     -1.01938222005437
  C           2.27012965655886      1.80120685710034      2.67408410351384
  C           1.41445906207027      0.89136826078873      3.51302629620094
  C           0.12420704083600      1.09565117014591      3.69569808319985
  O           0.80513037984386      2.87493515921238      0.58655430229911
  C           3.57514421016050      2.07778941519718      3.40085415164723
  H           1.75481904998497      2.76695145947747      2.58902244786400
  H           1.91906179700520      0.05292937655951      3.97304180176015
  H          -0.38196818241620      1.92790159233041      3.23596392827656
  H          -0.47407717436126      0.43283413936240      4.29641687967444
  C           3.23510190877318     -1.14039240399275      1.45637693399081
  H           2.04747144897292     -0.30002339594714     -0.11121485693452
  H           1.21524111142048     -0.37911465508644      1.43684810478201
  H           4.18916439351476     -0.94862316468394      0.96964566985022
  H           2.93238532057346     -2.15897102879942      1.22594710596394
  H           3.38461273214041     -1.06383274599380      2.52832806751040
  H           1.71065893667012      2.67245526357834     -1.71879273077750
  H           3.00125556519647      1.60757056948365     -1.28229972479882
  F           4.32173680550964      0.97924962765043      3.60618089699920
  F           4.36466132126404      2.93590050082176      2.72786393336825
  F           3.37328914353078      2.62247816172829      4.60964106627997
