25
Coordinates from ORCA-job NEB_reactant E -44.394080514450
  C           2.13430166717204     -0.13550082758089      0.10974970922530
  C           1.94336489533685      1.12117285877083      0.50786221833608
  C           1.20810025597816     -1.27092247481169      0.41435263273729
  H           3.02065974095762     -0.37098599234299     -0.46006825304204
  N           2.86222228480231      2.15737141823871      0.33477104978315
  C           2.97696382884420      2.56845053851491      3.73418262788475
  C           1.90048696167779      2.71617771853392      2.97902974286514
  C           0.98521317351110      1.59541245294986      2.59667150331677
  O           0.80581475735431      1.50794214340863      1.19365951163907
  C           3.88129083076827      3.70298475406677      4.09023234223517
  H           3.28149822179531      1.62169746172135      4.15323599054327
  H           1.64203526989953      3.68551827200603      2.57480263001039
  H          -0.01597592300014      1.78884443814482      2.99558848814644
  H           1.35795536259921      0.64346790614568      2.99530757801952
  C           1.88756945057685     -2.32871800385273      1.28517075516854
  H           0.89125404205641     -1.73770736398087     -0.52265392185626
  H           0.31888878488901     -0.88815608745065      0.91673596844602
  H           2.76674273595518     -2.72624027648301      0.78299896698632
  H           1.20432269088518     -3.15033863901346      1.48736524482029
  H           2.20265469650980     -1.89951716840327      2.23407949283494
  H           2.43344966911896      3.05755786296781      0.17201525767476
  H           3.59340567473985      1.95289632063519     -0.32922529687648
  F           3.55471040386826      4.85736094068133      3.49299333050671
  F           3.88407869663061      3.95017739423943      5.41542481186223
  F           5.16039182707332      3.45075435289429      3.76031761873262
