20
Coordinates from ORCA-job NEB_product E -33.662269902280
  C           3.08904895226248      0.90428596085800      1.32235970070087
  C           1.60706347530916      0.83622337099545      0.98331717412110
  O           3.80081460546351      0.05919067524757      0.46520901498612
  H           3.46057875583864      1.92948830496352      1.18906619522965
  C           0.70556507536061      1.79653178253572      1.72949340395584
  C           3.33583910906245      0.50851655267147      2.80729994893733
  C           2.81909153543690     -0.88330815054752      3.05641510538890
  C           1.90864591304326     -1.18746828527000      3.96187843829862
  O           1.21096987071788      0.04456641684119      0.16815712435212
  N           4.76319265779204      0.65061437389574      3.04845859970646
  H           2.82083287592357      1.22385842734922      3.46022998464962
  H           3.27777803368970     -1.65221161610170      2.44902553768958
  H           1.45216899325768     -0.43507835387248      4.58540403550792
  H           1.58224265275552     -2.20020232874191      4.12382272746837
  H           3.14450811284976     -0.45542371975860     -0.03631711654885
  F          -0.55593965618222      1.79487426529308      1.21124180125846
  H           1.08812294095281      2.82093990672158      1.66835951187514
  H           0.62490798845587      1.48871916988927      2.77853167430711
  H           5.27414070598522      0.17168304232015      2.31306983786475
  H           5.01272740202515      0.22890020471025      3.93657730025086
