22
Coordinates from ORCA-job NEB E -39.115878278220
  C           0.87678325683775      0.19943400040627     -1.04840744784331
  C           2.03319740070600      0.49096970849021     -0.33067154176651
  N           0.18272936416551      1.26376121210422     -1.71722355440089
  H           0.82661667849952     -0.72635095854902     -1.60646086943173
  Br          3.24206265775407     -1.05701705263623     -0.14763220649719
  C          -0.49880838405819     -0.00587211014495      0.57617287312697
  C           0.26467498463408      0.38903601074646      1.66452286942502
  C           0.86973853943018      1.64880785570056      1.66047447171966
  O           2.20747083012756      1.42362944923687      0.45777125088604
  C          -1.00922940326113     -1.41098125478742      0.45383652296911
  H          -1.13321258869151      0.75146527734899      0.13085348693640
  H           0.68938541079996     -0.38167038289754      2.29673409401503
  H           1.48912489333704      1.94614874060267      2.49309124753289
  H           0.38687116434949      2.45891497048640      1.12872939647796
  O           0.23250713409868      2.38266691699334     -1.25520742213151
  O          -0.41994967194344      0.95118578526402     -2.72173581331086
  C          -1.94920120136562     -1.60434783860814     -0.73038249378556
  H          -1.54809614594296     -1.64537988267968      1.37743630650734
  H          -0.17034482708440     -2.10861384774926      0.39567595107063
  H          -2.82005549055098     -0.96009368667126     -0.63312812826417
  H          -2.29123875619763     -2.63487174329328     -0.77168010993314
  H          -1.46102584564398     -1.37082116936324     -1.67276888330223
