22
Coordinates from ORCA-job NEB_reactant E -39.151195651920
  C           1.48402189078403     -0.56954804800397      0.65861480531954
  C           2.24259982542899     -0.25939743062249      1.72901272865704
  N           0.15335157193754     -0.15791351911750      0.42588131832263
  H           1.89357896702394     -1.18080161611763     -0.13037692661757
  Br          4.08234547894485     -0.75498429350311      1.64581776538550
  C          -1.25260286727049     -1.22578089107024      3.01207531413131
  C           0.01363097808304     -1.05905289710201      3.35975397752046
  C           0.68025903939514      0.27732633857768      3.46856313231355
  O           1.99802565372869      0.27295364745784      2.89588410499470
  C          -1.93969552156048     -2.54479618252813      2.90069984459071
  H          -1.85978241722333     -0.36183655671429      2.77329410491342
  H           0.64283296946983     -1.90818866369731      3.59764910803684
  H           0.86919991330874      0.54580955716167      4.51264554584377
  H           0.07052982672675      1.05354858284970      2.99238337792942
  O          -0.23248171151786      0.88528741116949      0.92570132807573
  O          -0.51552955393216     -0.85960951781441     -0.30583260928347
  C          -2.66698889204450     -2.66473458720577      1.56161830554825
  H          -2.66883333774122     -2.63064069368104      3.71196052631754
  H          -1.21525083755935     -3.35392868367209      3.01230161738461
  H          -3.45145268334325     -1.91549132685011      1.48774234438223
  H          -3.11750543020553     -3.64888005042699      1.46351350262353
  H          -1.97675286243338     -2.51384057908932      0.73469678361023
