18
Coordinates from ORCA-job NEB_product E -43.742965170830
  C           1.63447959044812     -2.03465465913349      0.96023038967386
  C           1.28205889172546     -0.58245963143101      1.22686984417800
  N           1.40233760511097     -2.32562775643042     -0.50587771818625
  H           2.70430660215767     -2.19730444971120      1.13932347363023
  Cl          1.90572419652675     -0.06107242294628      2.78314950419170
  C           0.79364415844408     -2.93451731140801      1.87732628109041
  C          -0.68678817128237     -2.69697064767559      1.79661330782490
  C          -1.39051168299042     -2.23107892033281      2.81065237509395
  O           0.65213289728409      0.13802150648636      0.53748750654502
  N           1.10942501036833     -4.38295129458314      1.56832825901101
  H           1.13415997153601     -2.77736182986012      2.90910414488938
  H          -1.15055169172401     -2.94287619947050      0.85318392595105
  H          -0.94237889373600     -1.99122160734253      3.76145285494224
  H          -2.44999957125905     -2.06966171326706      2.72708685079405
  O           2.10158749278664     -1.71518973191065     -1.26061571790338
  O           0.55747928595541     -3.12921815853303     -0.78277092094290
  O           2.20028729984012     -4.60385870604449      1.11033736495202
  O           0.26940700880819     -5.18399646640601      1.85481827426471
