18
Coordinates from ORCA-job NEB_reactant E -43.737251233860
  C           1.79376577022485      0.01021127068130      0.01970401196764
  C           1.21273408028789     -0.50726602998843      1.12131412334658
  N           1.99975419042837     -0.72969808876327     -1.17478400146077
  H           2.13915988291202      1.02918484556517     -0.01725527950571
  Cl          1.02391790901308      0.51667864637889      2.50591185657463
  C          -0.69272267067805     -4.51392902468296      2.98936339642120
  C          -0.19358492484132     -3.67852733835256      2.08830916793122
  C           0.17382159397426     -2.25994052397762      2.36174080317434
  O           0.78686934782985     -1.74428132244670      1.19252625904507
  N          -1.03143952114043     -5.86858100878552      2.64134830054365
  H          -0.88780156902168     -4.27924973574594      4.02512396408729
  H          -0.02950375475756     -4.01524893929007      1.07090233509267
  H           0.86313780074352     -2.19138271119767      3.21401846488049
  H          -0.72431093201768     -1.67460254602304      2.60501633591029
  O           2.53755358471055     -0.13070557232161     -2.08297093983162
  O           1.63743989423743     -1.88501374070558     -1.22186435850518
  O          -0.86422664436603     -6.22747280912898      1.50006866859746
  O          -1.46696403753906     -6.55477537121541      3.53872689173074
