16
Coordinates from ORCA-job R E -25.459099918730
  C          -1.15010151311407     -0.05139925443582     -2.93072962688821
  C           0.01093679393052     -2.67988889518383     -2.01921220797569
  C          -1.20680691730419     -2.22092384440557     -1.74638329727635
  C          -1.75864642346111     -0.94045269943797     -2.14833832425705
  C          -0.98070500998414      1.78761796343016      0.16449906663632
  C          -0.33086478089983      0.65044197613505      0.29283054558196
  H          -1.87897166372175     -2.82897035067826     -1.15421559531384
  H          -2.74288412091935     -0.70731393430995     -1.76450533950067
  Cl         -1.86373439679742      1.45856790855388     -3.32539505824946
  H           0.33405608033353     -3.64270078522996     -1.66277895388312
  H          -0.17416729297373     -0.18969683526902     -3.36714983182091
  H           0.72914448706269     -2.11758746115811     -2.58840359308245
  H          -1.95705564187686      1.91518461745583      0.60113842423473
  H          -0.70092876140761     -0.21648466984851      0.81517962553946
  H          -0.57185014625544      2.62692308326415     -0.37104165412817
  Br          1.38311930738876      0.36886318111793     -0.45573417961654
