16
Coordinates from ORCA-job TS E -25.442671736750
  C          -0.58937571083782      0.72628528394831     -1.27727051866045
  C           0.74684300792199     -1.46753529955693     -0.04353312534518
  C          -0.58639686493028     -1.48599359560285     -0.29853985244725
  C          -1.24662162948693     -0.42045743086419     -0.94241680376350
  C           0.04069097414563      1.34292671338648      0.78764888183744
  C           0.83516491683981      0.38627863146398      1.32891645021304
  H          -1.20654643192837     -2.24610310201057      0.15595925701795
  H          -2.32658778325465     -0.42972078851014     -0.97005448725764
  Cl         -1.46520956122595      2.07473813731354     -1.90426343369963
  H           1.19907391624319     -2.24411969128998      0.55210306107029
  H           0.45561045668980      0.75486779555546     -1.53739819595738
  H           1.42498506348661     -0.91502154755749     -0.66767161340205
  H          -0.98981972950701      1.40272894533856      1.09056231067390
  H           0.50976210672782     -0.29711656665415      2.09299930055213
  H           0.46604802650954      2.22474321436197      0.34169243224212
  Br          2.73237924260662      0.59349930067800      1.29126633692622
