26
Coordinates from ORCA-job NEB E -54.231512406940
  C           0.54801588230911      0.85435346455903     -0.24369839906649
  C          -0.60831811179788      1.60749680642339      0.01195149619308
  C           1.23317168641041      1.08114943169569     -1.55472722607527
  H           1.27214544162263      0.81698489677757      0.56712935858902
  C          -0.82196924638347      2.13914109524374      1.42416789018266
  C          -0.24134230223592     -1.07165133977007     -0.28558088368245
  C          -1.61320309020540     -0.86587139295028     -0.18947828604278
  C          -2.28157575599598     -0.00265774761324     -1.07745611116022
  O          -1.62454126490916      1.55683362207582     -0.75785926381566
  C           0.39886656433191     -1.87803068135323      0.81746818374883
  H           0.16988197511270     -1.22626771893748     -1.27667485953116
  H          -2.06639702924583     -1.02740170837742      0.78055576520512
  H          -3.32948257093039      0.19367634244198     -0.89448344362782
  H          -2.03331628144678     -0.05642197571884     -2.12993730140356
  Br          2.22872916932722      2.81007001759360     -1.38264583315390
  Br          2.59320989845442     -0.23893348498113     -2.00984313628764
  Br          0.10445761720186      1.26634827384362     -3.11188759705261
  Cl         -1.05984120904895      0.81163575934019      2.60039399231996
  Cl          0.60243695611228      3.07225749095762      1.93895115633224
  Cl         -2.25017596634656      3.17913163071848      1.46329879868706
  C           1.89325227780860     -2.13760746300865      0.69329875153532
  H          -0.11381095364436     -2.84511073184300      0.82134070365596
  H           0.18744005261963     -1.40431359475480      1.77767941704638
  H           2.13162409783237     -2.61497048901186     -0.25336037251481
  H           2.21027877109409     -2.79889071096158      1.49573748914218
  H           2.47046339195344     -1.22094979238916      0.77565971077655
