26
Coordinates from ORCA-job NEB_reactant E -54.274111468770
  C           1.76188251282499     -0.12823855352869      0.25519886843073
  C           2.11690260238972     -1.42168041780143      0.40015850896309
  C           0.98411163678850      0.28815850360248     -0.92236442097170
  H           2.03485708926320      0.62359475270864      0.97386725835804
  C           2.84704031213593     -1.86067206782180      1.64620829340863
  C           1.32569499272719     -5.33496171341436      1.19221727045667
  C           0.93882385817745     -4.26559609406444      0.51670843974471
  C           1.72391759968824     -3.66009001565823     -0.60276166921955
  O           1.74581725699549     -2.23185053362181     -0.59404320694191
  C           0.53846110898389     -5.98339482878511      2.28180972068205
  H           2.27668921899920     -5.80092384302971      0.96585971657522
  H          -0.01048827854186     -3.78758314960458      0.71847844359862
  H           1.22415187376448     -3.86723379557100     -1.55703034716538
  H           2.73919849006358     -4.06224778734035     -0.64973457763219
  Br          0.54757166601301      2.17371675707764     -0.84903914038368
  Br          1.96435612666653     -0.04438639286875     -2.59725304445270
  Br         -0.70436282284786     -0.71051631881258     -1.05713758356121
  Cl          4.00119911625181     -3.17860480332953      1.38483604308076
  Cl          3.78316623479531     -0.51484338629169      2.35050225041467
  Cl          1.63651757217435     -2.36282449616386      2.86639811830738
  C           1.37466232783327     -6.13794260543396      3.55146568184111
  H           0.22338562630148     -6.97481680362775      1.94329643684989
  H          -0.35766028130572     -5.39773241684387      2.49267013964707
  H           2.26387728775998     -6.73233019046014      3.35362571338439
  H           0.79551532210268     -6.63132575172609      4.32776016092063
  H           1.68671154999514     -5.16447404758900      3.92180292566464
