18
Coordinates from ORCA-job P E -24.930420273160
  C          -1.34619196575905      0.57363191055462     -2.17166882138203
  C          -0.54247866943195     -1.75889650540755     -0.55187321187929
  C          -1.31227836779009     -1.86483430354758     -1.82966654994587
  C          -1.67971167402011     -0.82420469842448     -2.55874825388754
  C          -0.99088215783915      0.69219279703462     -0.70006970254397
  C           0.06150600040511     -0.36527378463303     -0.35326821782560
  H          -1.56520933051728     -2.86626339326339     -2.14783759366860
  H          -2.22102694470673     -0.95349255400264     -3.48478003251047
  Br         -2.87930469571881      1.76303706733659     -2.56599772150942
  H          -1.20812090431108     -1.99008383240172      0.28606972890751
  H          -0.53812058002576      0.95766077192160     -2.79962616535016
  H           0.25248486249245     -2.50909754433977     -0.54708050602758
  H          -1.87875627879858      0.52201763195666     -0.08775036341668
  H           0.33328972573109     -0.24833323572686      0.71419017984781
  H          -0.61212563912953      1.69347298312927     -0.48218224947686
  N           1.20657442148974     -0.19919238010663     -1.23680134861375
  H           1.63232152940966      0.71086967524258     -1.09712545417182
  H           1.91014066852007     -0.90371060532230     -1.04660371654566
