18
Coordinates from ORCA-job TS E -24.828933233870
  C          -0.77950718204406      0.70955709968368     -1.31314167526233
  C           0.44455181173960     -1.60665288205036     -0.21248494370334
  C          -0.87298338538563     -1.56206696372921     -0.51862641101494
  C          -1.48587488521971     -0.44867150645930     -1.12771204897813
  C          -0.25271212060353      1.28444687046590      0.67458356699650
  C           0.57669661561020      0.36218878450335      1.25717581078779
  H          -1.52645030808221     -2.34394794075059     -0.15591388423900
  H          -2.56361024308130     -0.42789190058060     -1.19135306149759
  Br         -1.68259903360190      2.23750903706309     -2.01455765282888
  H           0.84635670859816     -2.43254079572561      0.35165115722215
  H           0.25862257704709      0.71780777327659     -1.60079234369235
  H           1.16741358857157     -0.99721799699905     -0.72280322923407
  H          -1.27575668384325      1.33751615135596      1.00086679835171
  H           0.19473761122195     -0.38244691167601      1.93595591172467
  H           0.17652097259988      2.20861967255817      0.32121001367104
  N           1.94515155135069      0.51816302730298      1.27886876884841
  H           2.32991053799908      1.12715660172981      0.57276930448039
  H           2.49953186712336     -0.30152811996881      1.46430391836796
