17
Coordinates from ORCA-job NEB E -37.992396395030
  C           1.07563239217475      0.37373401213783     -0.18653923923555
  C           0.26375260752833      1.40874979093464      0.28175523299148
  C           0.91883527046550      0.03528488464649     -1.65641874822249
  H           2.11259205977222      0.35273208082039      0.13348603618157
  Br          0.86455425034038      2.28254200673991      1.91669347692006
  C           0.20415126986744     -1.11634064755990      0.77592092921939
  C          -1.13477722532183     -0.96594432934196      0.40990365930681
  C          -1.80707399210935      0.22007751169962      0.79214390770298
  O          -0.97484060784699      1.46285865942856      0.03925518715720
  Cl          1.03893531078866     -2.56181656661816      0.29941210535481
  H           0.52157644803947     -0.79046224055203      1.76198303932025
  H          -1.51059390024654     -1.53546049525236     -0.42674680859206
  H          -1.68788952132644      0.55111976217256      1.82013146473717
  H          -2.80959152064798      0.36359885240517      0.41153053167021
  F           1.29832653840884      1.10719982663639     -2.39923859040292
  F           1.73689148718450     -0.96806390773128     -2.02494138770465
  H          -0.11048086707095     -0.21980920056587     -1.94833079640426
