17
Coordinates from ORCA-job NEB_product E -38.033493454150
  C           1.66983780224244     -1.32590524351474      0.88175931988068
  C           0.77062089457056     -0.12970216833669      1.01663243133802
  C           1.68420272560212     -1.78825626394515     -0.58869520143828
  H           2.69974371266096     -1.03127602914892      1.11776355498736
  Br          0.95054518790503      0.73239969988581      2.75478331487959
  C           1.22908771634252     -2.39034748683758      1.91907404616425
  C          -0.24045841390456     -2.66706631617154      1.89831105405003
  C          -1.01541433082032     -2.46349498403710      2.94829215841093
  O           0.01735912257976      0.31884331290165      0.22731099866455
  Cl          2.13707789465671     -3.91857376881216      1.63365850923796
  H           1.53153741629162     -2.04791839428554      2.91292086634988
  H          -0.63898982887200     -3.06489436117684      0.97766808003312
  H          -0.63092965575474     -2.07636150059255      3.87813074165975
  H          -2.06996726863189     -2.67283309085179      2.91503170477419
  F           2.86042093963280     -2.38357467129016     -0.87595134954914
  F           0.71746755575846     -2.67673743895630     -0.87930355712262
  H           1.56615852974053     -0.93370129483041     -1.27588667232027
