17
Coordinates from ORCA-job NEB_reactant E -38.019604862970
  C           1.73678090887293      0.05594348931738     -0.03041700454457
  C           1.09544571997493     -0.40510736424263      1.04791860543232
  C           2.13802258875347     -0.86125757114938     -1.14297792311498
  H           1.99097271961623      1.09565976268852     -0.11887227633273
  Br          0.60892130068719      0.84850904376885      2.40973400162081
  C          -0.01575713057640     -4.46226280513056      3.07051873418443
  C          -0.25511425380323     -3.58035761460925      2.11445394908761
  C          -0.03489516755843     -2.11163931290438      2.29104377235229
  O           0.79950366236171     -1.67672739109138      1.22682938372198
  Cl         -0.29136179643234     -6.13961745346441      2.87378807378087
  H           0.34936867792798     -4.19280152220869      4.05064465361229
  H          -0.60684001323021     -3.88353400310651      1.14016204538974
  H           0.44108437460226     -1.90017434603918      3.25657437402472
  H          -0.99746410295462     -1.58203471174650      2.24352212354836
  F           3.03769050467598     -1.79351405648474     -0.73050767757726
  F           1.07819209835396     -1.56469256847998     -1.62187447474115
  H           2.58674990872859     -0.31949157511716     -1.98874036044475
