18
Coordinates from ORCA-job NEB E -38.531846228900
  C           0.84727801236774     -0.60696068359999      0.16399343088104
  C          -0.41979433095096     -0.36866229708030     -0.63251978536701
  C           0.48868075936228     -1.26058942894936      1.40417047533735
  H           1.53122097740583     -1.25410350660513     -0.38918569323083
  C          -0.76294701859404     -1.34689576099649     -1.67461995799383
  C           1.43376563537449      0.77868813939160      0.42573376422725
  C           0.30052177846731      1.72968979065778      0.33396784975813
  C          -1.09595781037339      1.34793279901630      0.65542573162407
  O          -1.49473943719361      0.19146614322003     -0.01501915860934
  H           1.96469891609331      0.85874843460128      1.38833412228997
  H           2.16654285643282      0.99771940992590     -0.35361393489323
  H           0.53909845503839      2.76539172298878      0.53890182700356
  H          -1.80033811057138      2.13156315359554      0.35590221031722
  H          -1.20916629103613      1.21184692562940      1.74436156189326
  N           0.17758065226286     -1.73754982202156      2.39489003838757
  Cl         -0.94097838506314     -3.05540002843003     -0.98080027246966
  Cl         -2.26990986052228     -0.94341587195704     -2.48361277412456
  Cl          0.54444320149992     -1.43946911938673     -2.87630943503098
