21
Coordinates from ORCA-job NEB E -29.156443717600
  C           0.32338246250573     -1.02046795432856      0.64833227718077
  C          -1.05937229134495     -0.92572643253556      0.40468422304501
  O           0.81426293065919     -0.67511393070780      1.87260802976903
  H           0.89001313463770     -1.84198332722268      0.22583395979559
  C          -1.67428394262841     -1.61336064292054     -0.78344800499127
  C           0.83479513413258      0.51996530176830     -0.48346647188670
  C           0.14348290718348      1.55223221303957      0.15646461886034
  C          -1.26363677573641      1.54429790831104      0.14557994301795
  O          -1.66588262134416      0.08013189060230      0.95396205882688
  C           2.33819254554577      0.49112316294228     -0.42830992030324
  H           0.42315569504103      0.15959153443618     -1.42137984667401
  H           0.64562000399430      2.07052192055368      0.96266880771009
  H          -1.76134051443608      1.33489473869813     -0.79467571382712
  H          -1.78268772843769      2.27311263772445      0.75209271113594
  H           0.16027955450579     -0.08742120836514      2.28418110724501
  H          -1.74436596537874     -0.92643743586094     -1.63048658523062
  H          -2.68523655484217     -1.92782580756131     -0.53394572293352
  H          -1.08828855720475     -2.47890662614876     -1.07610653010598
  H           2.72607026600292     -0.43953720307878     -0.83456585266847
  H           2.68409225771117      0.59661284355867      0.59713319702626
  H           2.74174805943370      1.31429641709546     -1.01715628499195
