32
Coordinates from ORCA-job P E -37.434884997450
  C          -1.14026135065747      0.17661455119853     -3.36996836693874
  C          -0.02946913801641     -1.87051074628179     -1.50887199549782
  C          -1.21282613480537     -2.11005677849025     -2.39047997437727
  C          -1.71880755237978     -1.19825062208550     -3.20054198587884
  C           0.08249115225269      0.42536637825472     -2.46726673088456
  C           0.12807396855267     -0.38572421727351     -1.16590694132420
  H          -1.65075779491218     -3.09833667488565     -2.33678689136936
  H          -2.58278102525938     -1.42364994756394     -3.81105577444812
  N          -2.11673551514580      1.26223413464415     -3.22818678160542
  H          -0.15543219504705     -2.46309558896368     -0.60187534262492
  H          -0.79034054297846      0.25528310016514     -4.40921882681797
  H           0.88026185496937     -2.21375457762440     -2.01098373498446
  H           0.09311130582892      1.49345081207866     -2.25751842363327
  H          -0.71795585401373     -0.09805946142027     -0.51180907535566
  H           0.99064604731411      0.17939048794370     -3.01968799872192
  N           1.40009562360454     -0.14026257978550     -0.47675907149065
  C          -3.01438345331449      1.37815449193137     -4.35712806226460
  C          -2.84918835983463      1.24005328770978     -1.98080138424384
  H          -2.43509478661604      1.41884776822123     -5.27860783030776
  H          -3.57201456033517      2.31023171548271     -4.26094886744952
  H          -3.74028591317513      0.55432513316790     -4.43395795124825
  H          -2.15077921580770      1.28957295688757     -1.14959841027707
  H          -3.47806387584999      0.34444793025442     -1.86170243762369
  H          -3.49058984002952      2.12040091574761     -1.93888410110602
  C           1.58264771692535     -0.99518413949392      0.68201434722148
  C           1.55209175658375      1.24911505705504     -0.08631593652209
  H           0.74165470132709     -0.93945708085280      1.39188390588677
  H           2.48893582493864     -0.68955881679771      1.20238559033061
  H           1.71527123291722     -2.02817688971760      0.37023701110231
  H           0.71299930775326      1.61192990300902      0.52918691028991
  H           1.64057346367664      1.88027336996724     -0.96630337639385
  H           2.47026315153401      1.35365612751771      0.48942850855880
