32
Coordinates from ORCA-job R E -37.373579855980
  C          -1.49379160852754     -0.81641699338719     -2.94754455126937
  C          -0.35948344538701     -3.54542918019458     -2.28908181280462
  C          -1.49549396133113     -3.01909403707360     -1.82958175466371
  C          -2.07916869538005     -1.74358637976223     -2.16523041469924
  C          -0.93049137343628      2.15421655022999      0.02811516253492
  C          -0.41053625911301      0.97655227438924     -0.31099005735216
  H          -2.06689452910768     -3.59613483399809     -1.11109783574440
  H          -3.04713645693111     -1.54974217758002     -1.72736948276787
  N          -2.02054312006209      0.37129211791593     -3.36050690851988
  H          -0.01506379861066     -4.50881297597434     -1.95510325107895
  H          -0.51117227467125     -1.01131170093816     -3.35253024524435
  H           0.26121960387106     -3.04862438732419     -3.01465777568858
  H          -1.92894541784034      2.21084009521770      0.42191696276362
  H          -0.99676137309450      0.07625874226884     -0.18161789110193
  H          -0.40437294989338      3.08726622621969     -0.06174036323073
  N           0.80576449237455      0.73877063564027     -0.90746418040398
  C          -1.13029287240370      1.41805546218029     -3.79451711155251
  C          -3.27894619349639      0.82915149718044     -2.82823898449317
  H          -0.85931397271701      2.08261911756875     -2.96590274568564
  H          -1.61560198729382      2.01098035366648     -4.57313929295882
  H          -0.21995622687309      0.98442061504835     -4.20239124622438
  H          -3.19082963497262      1.15157401721031     -1.78394688525193
  H          -4.01631633667747      0.03057861860627     -2.89311021095468
  H          -3.62867322023717      1.67124369398129     -3.42464534028283
  C           1.38604712272434     -0.57209342622126     -0.74517412840675
  C           1.75901709725915      1.81671695627561     -0.99482337223364
  H           0.60558461987763     -1.32906919059243     -0.79464285401223
  H           1.92027888981961     -0.67699230790841      0.20921668882781
  H           2.09518936068107     -0.75428951223993     -1.55456043268431
  H           2.15392821462678      2.11116819517933     -0.01318390065384
  H           1.28809301272472      2.68509997228293     -1.45352237729956
  H           2.59125329409840      1.50368196213275     -1.62454340686232
