32
Coordinates from ORCA-job TS E -37.349710791890
  C          -1.02124463879499     -0.16645532439188     -1.05403546565602
  C           0.60187699538845     -2.18440387178505      0.16733984959858
  C          -0.73126444733514     -2.35152108045526     -0.05948484082410
  C          -1.53801276684229     -1.39793313415015     -0.68810748166205
  C          -0.43048976531478      0.51900137615397      0.92308078991542
  C           0.55396309799916     -0.26263936911694      1.48501707249213
  H          -1.23216868274237     -3.19022831211183      0.40824222861872
  H          -2.60553357583690     -1.55640213567289     -0.67078920056591
  N          -1.76476950467109      0.83515059507946     -1.65033333204892
  H           1.14118828108489     -2.92593863902911      0.73486104435018
  H           0.01481829307448     -0.13183665490435     -1.35602748358059
  H           1.20483824918620     -1.56496322752771     -0.47049894608904
  H          -1.42562220820566      0.42037026018692      1.31686969552806
  H           0.27720861775811     -0.96201232690543      2.25825610043540
  H          -0.18793220936548      1.48145628320682      0.51020147803059
  N           1.90043263427800      0.06797343352487      1.51094077359329
  C          -1.06795673040209      2.02013208381498     -2.08384359113238
  C          -3.10097655731821      1.11746052693296     -1.18527640225173
  H          -0.96008324140108      2.76378249002268     -1.28052060751344
  H          -1.62790124706036      2.48516020877092     -2.89761152053046
  H          -0.07854869102533      1.75727832739723     -2.45309196021161
  H          -3.09723007453217      1.77315400904981     -0.30363909211432
  H          -3.61432218956682      0.19613409886577     -0.93055560635383
  H          -3.65693946347520      1.61484610470758     -1.98183613826673
  C           2.81602262205715     -0.87939816160710      2.09584597923646
  C           2.48723068823197      0.81723997956583      0.42918013696714
  H           2.33282070554147     -1.39999677137075      2.91953818836055
  H           3.68256522533101     -0.34087210894562      2.48544186277523
  H           3.17169367471223     -1.62268684249822      1.37003262817093
  H           1.80708907495078      1.59549240758705      0.09571646356900
  H           2.74536294593435      0.18230498375728     -0.43073751076062
  H           3.40388488836169      1.29035079184817      0.78582488792006
