18
Coordinates from ORCA-job NEB E -38.924246940800
  C           0.51926721420182      0.46768299484644     -0.97233285360892
  C          -0.73241191270072      0.74523432822899     -0.36849629328267
  C           0.52219300743501     -0.39229251404520     -2.11209756832486
  H           1.20655193850163      1.30443859055377     -1.07822076792771
  C          -0.85950440642006      2.02596845222903      0.44556909296547
  C           1.30422323232414     -0.66817450422514      0.32790150155459
  C           0.34453399102816     -1.68499347766155      0.45189462822579
  C          -0.92837045851806     -1.34097355032334      0.95533349846223
  O          -1.55905854230175     -0.20654502402029     -0.12315798128112
  Cl          2.86322265931138     -1.09187807121381     -0.33200599768856
  H           1.41104091222812      0.05434174940829      1.13125127899984
  H           0.43564093725178     -2.55002421111736     -0.18886923103399
  H          -0.96204081338806     -0.73310962047096      1.85333121868430
  H          -1.68994923795959     -2.10832994197606      0.92552619872188
  N           0.50598230527354     -1.06514555896078     -3.03547237271219
  F          -0.18545583405108      1.90056041785582      1.63062033921473
  F          -0.29141158874631      3.07190526748451     -0.19089481526617
  H          -1.90445340346994      2.27133467340763      0.68012012429736
