18
Coordinates from ORCA-job NEB_product E -38.955075802480
  C           2.66161026421225     -0.72736399872712      1.22425295982977
  C           1.29864636689940     -0.14820332088078      1.56020119097254
  C           2.57707180875201     -1.53915823933881      0.02718871820612
  H           3.39191026146568      0.07187591534407      1.05484637899840
  C           1.35882788143339      1.31786598919611      2.05507058390466
  C           3.12195185377221     -1.59027528298463      2.42876326492102
  C           2.21050844977115     -2.74133745528855      2.68339729645799
  C           1.64796196367172     -2.96884538784568      3.85598248513608
  O           0.26380453348428     -0.74403246308464      1.52138361604633
  Cl          4.77325162107730     -2.21359115659634      2.05016505791206
  H           3.22935047790805     -0.95896047585799      3.31435847750054
  H           2.04331352182834     -3.39619858850176      1.83993616236295
  H           1.81222393374518     -2.32170720024231      4.70230539104299
  H           0.99857996795819     -3.81135524786124      4.01345298186185
  N           2.51422738107050     -2.16831674727713     -0.92208080743309
  F           2.06081836307233      1.35906564825059      3.21369480145383
  F           2.02896968099140      2.08809305584662      1.17124012116934
  H           0.36167166888663      1.74674495584958      2.22644131965663
