18
Coordinates from ORCA-job NEB_reactant E -38.955735162770
  C           1.86322435991294      0.00580817646023      0.18872077279442
  C           1.50802478047264     -0.32851736909252      1.43977467401845
  C           1.83588537986741     -0.91814835391071     -0.87072084919141
  H           2.17862316827179      1.00969680304462     -0.05108516279059
  C           1.54261273772858      0.70421624720745      2.55267458020356
  C           3.61492468645985     -2.35939021991827      3.85933641766302
  C           2.72164421213517     -2.69291364970389      2.94259880551273
  C           1.30935054275696     -2.18767524222046      2.94789181915692
  O           0.99703321721257     -1.54656620798427      1.71271715126201
  Cl          5.22392364345734     -2.94175731346812      3.83555301660852
  H           3.39978110579912     -1.70897983141339      4.69380252121561
  H           2.97984326728165     -3.33177243032996      2.11089647022147
  H           1.13234178947090     -1.53264649168477      3.80697770760593
  H           0.60965623485642     -3.02763659632933      2.98510601540049
  N           1.83111908110878     -1.65749379615872     -1.74653844112827
  F           2.60012387744911      0.52266296563045      3.38822866217433
  F           1.67275746740098      1.94984771719395      2.05299636050167
  H           0.62533044835777      0.68116559267773      3.16566947877115
