15
Coordinates from ORCA-job NEB E -26.874381799590
  C           0.15596212363184     -1.42561592250760     -0.11079733654858
  C          -1.18008720660213     -1.07796294237505     -0.14853464615634
  H           0.57906780832653     -1.63544894765179      0.85996106417932
  H           0.56118914136393     -2.01160348563553     -0.92222764572511
  Cl         -1.95783401357892     -1.14661740478576     -1.74948207974294
  C           0.97386706830497      0.40140005217808     -0.31601538606128
  C           0.31892431857444      1.08506237736646      0.70654475202733
  C          -1.08071609157021      1.24235210073535      0.63814782514686
  O          -1.72417945026648     -0.32461197130134      0.70881029839982
  O           2.31104732783425      0.18318137448825     -0.17878065598757
  H           0.62160650903736      0.54058606510296     -1.33601269027456
  H           0.80849823698465      1.11156746369838      1.66807738694235
  H          -1.50320077205427      1.53647818279384     -0.31706410449673
  H          -1.57017825503291      1.70118752209311      1.48532396359478
  H           2.68603325504693     -0.17995446419935     -0.98795074529735
