15
Coordinates from ORCA-job NEB_product E -26.917245887160
  C           3.04242178808483      0.86620638606519     -1.38005401059553
  C           1.56442533216648      0.77983065515463     -1.22397262853488
  H           3.50677541580697      0.33272123047977     -0.54662728454424
  H           3.35236250962375      0.41618691769654     -2.32380993426961
  Cl          0.70904683695785      1.41160283349095     -2.63729578344736
  C           3.51939801465668      2.34964887523163     -1.37580560096415
  C           3.05709460922501      3.01791605387680     -0.11105114182869
  C           2.14243522125876      3.96666740360023     -0.06600934050294
  O           0.94832666427513      0.37561036293920     -0.29635044349202
  O           4.91176872147301      2.40985005283639     -1.53643831893830
  H           3.10380451172093      2.85841882752177     -2.25051445855430
  H           3.53063895074516      2.65979960518171      0.79511379459401
  H           1.66284653738556      4.33320671968055     -0.95818575826400
  H           1.83179583978278      4.41210506354552      0.86314131703500
  H           5.33835904683709      2.11692901269910     -0.72174040769298
