15
Coordinates from ORCA-job NEB_reactant E -26.902115543820
  C           1.94578655608848      0.03211805483962     -0.23553506819560
  C           1.42252553121276      0.70919756270683     -1.24587351979527
  H           2.47142294437325      0.51332385920508      0.56747256541861
  H           1.84563336847766     -1.03398362494919     -0.18801510126783
  Cl          0.57829346782477     -0.11005645410853     -2.51445571275668
  C           4.25603650875153      3.88330680917468     -1.37021123398011
  C           3.58221999559225      2.87557608557412     -0.83122175438329
  C           2.10176804544046      2.90736090252541     -0.61613143742943
  O           1.40486171110590      2.02915742864437     -1.49781100646082
  O           5.58192148123318      3.91631510480803     -1.60455480881722
  H           3.78286384396327      4.81146387705102     -1.65760637720660
  H           4.09039676921119      1.95707302514985     -0.56953181820214
  H           1.70716144034743      3.89691673061981     -0.85520462961097
  H           1.84669344682114      2.65934934479064      0.42191737261279
  H           5.98621488955674      3.07348129396826     -1.35963746992543
