21
Coordinates from ORCA-job NEB_reactant E -45.968139334470
  C           1.92866460375523     -0.25785491623086     -0.26306681310668
  C           1.41647988386720     -1.35224741632227      0.31629763095128
  C           1.95125267697970      0.17309894595359     -1.69466742003991
  H           2.40153805174058      0.45422577343579      0.39931925002552
  C           1.54749968825970     -1.43514235621347      1.73693948086648
  C           2.32316840119337     -3.02893099266021     -3.38882126271652
  C           1.99352636020820     -3.14403702082976     -2.11157569175240
  C           0.67718585951040     -2.69796041064751     -1.54783847316037
  O           0.74157803106230     -2.43156360124167     -0.16656356163896
  C           3.61050654985303     -3.45901425118343     -3.99231995898102
  H           1.64401968927603     -2.58777662655284     -4.10628635239114
  H           2.66870238934201     -3.59218121115464     -1.39612899337883
  H          -0.03540931453107     -3.52923992946299     -1.61532284508644
  H           0.26790964046881     -1.84914308297953     -2.10678100828228
  F           2.78207761330387      1.25646460355973     -1.82411214088236
  H           0.96288821624067      0.51131224733316     -2.03620138588981
  H           2.34042398676758     -0.59568250340363     -2.37241234271979
  N           1.66325677094067     -1.48613717426781      2.87422813818965
  Cl          3.28549548048875     -4.59909446998016     -5.33114870665637
  Cl          4.43215710494750     -2.01698243580259     -4.67387347211312
  Cl          4.71237831632549     -4.23751317134889     -2.85026407123691
