16
Coordinates from ORCA-job NEB E -26.242033224330
  C           0.05428337266343      0.58351345169563      1.33522733626595
  C          -1.18948157060104      0.93990210156383      0.87252339647905
  H           0.87059463478096      1.25134819687178      1.10830932801515
  H           0.13538013420535      0.04206081948801      2.26399179268815
  Cl         -2.56253262403407      0.05226972352594      1.59563081985636
  C           0.52265341978756     -0.83791344098898     -0.12437180662174
  C           0.32279390014878     -0.02857587634956     -1.24379592273951
  C          -0.96191912723578      0.43055777497854     -1.55398122912546
  O          -1.40407888721568      1.50620262735424     -0.22771119094929
  N           1.77306310899176     -1.31539344765102      0.18833803752887
  H          -0.27676198655236     -1.50652414532538      0.17301458679084
  H           1.17357583740446      0.51804885190100     -1.62694463406055
  H          -1.79281862748113     -0.25207627275703     -1.42804812719762
  H          -1.07407353406129      1.11475597096854     -2.38121703676703
  H           2.54403991021328     -0.69778324064226     -0.01698150066931
  H           1.86528203898579     -1.80039309463327      1.06601615050617
