16
Coordinates from ORCA-job NEB_product E -26.278529048200
  C           2.96844950431943     -1.96458664125648      0.15233968696248
  C           1.63069104410002     -1.31405520450892      0.08402250893415
  H           3.72896234262542     -1.18126090531953      0.17544300383013
  H           3.04545779448206     -2.57237329773489      1.05423546685428
  Cl          0.31092556961110     -2.48730005170389      0.21229380735864
  C           3.21090983554277     -2.88680484854708     -1.06499954778434
  C           3.08103579989429     -2.09634644399295     -2.34072888948776
  C           2.21924647198189     -2.37407789318309     -3.30011125819570
  O           1.37703848457952     -0.16516025701491     -0.05096574709900
  N           4.51989442077460     -3.50281394935282     -0.89824404478391
  H           2.46845767718674     -3.69112757191323     -1.05138118844175
  H           3.77725470368852     -1.27300282917413     -2.44305903979448
  H           1.51938963723510     -3.18915102383844     -3.21258925387338
  H           2.16812698475093     -1.79666434266382     -4.20729720109257
  H           5.25261317453345     -2.80626944888416     -0.99242889535492
  H           4.66884655469415     -4.20780529091167     -1.61092940803187
