24
Coordinates from ORCA-job NEB_reactant E -44.475293294900
  C           1.53928339298334      0.27714419180707     -0.37070360764762
  C           1.40346979276705      1.01022817929620     -1.49151378623732
  C           2.11984396960336      0.54433691333978      0.96000260416477
  H           1.15555833898001     -0.72890351958401     -0.44835742364717
  C           0.75626037449922      0.34136233848304     -2.68598432066202
  C           2.78378853846549      5.45726810446690     -1.88124134387918
  C           3.10584126692453      4.17181320965614     -1.92681954561180
  C           2.51267796862020      3.14225854028206     -1.02005056183869
  O           1.74992966403312      2.25003402172453     -1.83377230798169
  O           3.28702536889239      6.43007541067591     -2.66759590244350
  H           2.07782058741888      5.85559292058173     -1.16662559337676
  H           3.81062846955003      3.80501637481356     -2.66098402851329
  H           1.85651382981022      3.62002318674169     -0.28661507926478
  H           3.30474365524106      2.59442026489885     -0.50391857724823
  Cl          1.47167155240567      2.00735406996812      1.76186201375815
  Cl          1.76213390236088     -0.82380163149818      2.04526625900814
  Cl          3.92512462959001      0.69189676422527      0.93415016174602
  C           1.80185038438913     -0.42624927553100     -3.49483311441086
  H           0.31624225541686      1.11929418686964     -3.30991650095646
  H          -0.03033879190977     -0.33631948806123     -2.35785237335279
  H           2.58375279976822      0.24759809366999     -3.83487665331877
  H           1.33883814364715     -0.88634680468646     -4.36382353235946
  H           2.25615193124102     -1.20504697526646     -2.88762731584411
  H           3.91108797530193      6.05375092312685     -3.30196947008259
