24
Coordinates from ORCA-job NEB_product E -40.797790560260
  C           2.63543541886408      0.90877601992868      0.59758191908775
  C           1.39815768222540      1.15899615053295     -0.27886510681383
  O           2.40595431789347     -0.05164252235502      1.59435687316917
  H           3.47340670871773      0.59737132621057     -0.05156915452403
  C           1.71144686711511      1.65133993827161     -1.66844542438275
  C           2.99832429036756      2.24958812160563      1.28486911441192
  C           2.07572386183532      2.51610651291817      2.43839095335660
  C           1.24885877693523      3.54191034577487      2.48582871645610
  O           0.28160309370867      0.96218799275905      0.11768804152937
  C           4.45628863813390      2.23371287670099      1.75185372145478
  H           2.92504829335694      3.05768537365980      0.54907317899502
  H           2.11772843375286      1.78064446438492      3.22657216003599
  H           1.18983400577204      4.26797464117640      1.69072972818567
  H           0.58870112194712      3.69541729648153      3.32095091190720
  C           2.28607874400187     -1.36331075862592      1.10548209705124
  H           3.18146034856428     -1.65823236092847      0.54310110685631
  H           1.40470672303685     -1.47845585638454      0.46561410066184
  H           2.18225008436531     -2.00106321170352      1.98021119791513
  H           2.58540700700136      2.29651636443418     -1.67868213337578
  H           0.85043789790624      2.16729419736278     -2.08477029215467
  H           1.92507259383658      0.78394386663231     -2.29262893806036
  F           4.75877781995813      1.16226481336171      2.50767473366649
  F           5.28731177457275      2.17961785415120      0.67400776141315
  H           4.71778549613122      3.13765655365014      2.32487473315774
