18
Coordinates from ORCA-job NEB_reactant E -34.292079933280
  C           2.40819214362891      0.53142465446590      0.75839470635374
  C           1.32934666886607      0.34917445567252      1.52085116645643
  Cl          3.87527380903897     -0.37783258740093      0.77302406064638
  H           2.39874517645745      1.34046803564422      0.04998169963696
  O           0.28924804316438      1.20190709208165      1.34439691055769
  C           3.21147840203443      0.25094649233213      4.13877413191049
  C           3.09863925167616     -0.99302629141601      3.70762708625532
  C           1.95423577560890     -1.53168416696018      2.90470119531480
  O           1.01927459272599     -0.55645990854188      2.47863632084918
  C           4.36631414904954      0.76420574591773      4.93603035818115
  H           2.46359927440149      1.00096616988065      3.92380205716850
  H           3.86273220519046     -1.72224352155499      3.93448030850290
  H           1.36122311776298     -2.21095305690637      3.52842150769167
  H           2.33225640373932     -2.10006748576856      2.04817920379156
  H          -0.42927582660163      0.91455579699786      1.92503510842614
  F           5.24943016285958     -0.22991148375025      5.26984839123918
  H           4.02336749004196      1.21273873758467      5.87692611892695
  H           4.93101916035504      1.51179132172186      4.36418966809097
