23
Coordinates from ORCA-job NEB E -31.836616361440
  C          -0.38997769482315     -0.96038062388796      1.11078798353747
  C          -1.71141117251090     -1.22828117118428      0.77783843136438
  C          -0.11355785979760      0.23786559414486      1.97909627487729
  H           0.23432776957553     -1.81940195139291      1.33481784896503
  Br         -2.06543744850873     -3.08409716106282      0.17332491015335
  C           0.22025888697425     -0.43646204104145     -0.72762123897999
  C          -0.70058231944891      0.55715021195853     -1.03897282020145
  C          -2.06833474518303      0.20235455049665     -1.16502426327985
  O          -2.51556397746569     -0.35612050642362      0.34054013271688
  C           1.70684117266200     -0.16841059307353     -0.64141054845358
  H           0.01731746957488     -1.41971003244776     -1.14456422840096
  H          -0.46888422058924      1.58631552085063     -0.81284342636822
  H          -2.29517565954882     -0.68645396449775     -1.74831054368176
  H          -2.77880055649652      1.00333602802613     -1.32257569878493
  H          -0.74437029092035      1.07683823166147      1.69792782877901
  H           0.93093043544538      0.52799428484944      1.92186247565562
  H          -0.33070584091352     -0.02249253363714      3.01539648657320
  C           2.11246706990063      1.30106699723292     -0.61508325453339
  H           2.16070796023569     -0.63254760316306     -1.52229498959634
  H           2.12776731080917     -0.68032058042191      0.22663024722280
  H           1.79952795367976      1.79858427024039     -1.52966140803087
  H           3.19503779826797      1.37668230203805     -0.54065432130966
  H           1.67761795908123      1.82649077073511      0.23079412177598
