23
Coordinates from ORCA-job NEB_product E -31.881069362420
  C           2.97930748140100      0.25263528472154     -1.35952562862213
  C           1.84786661625390     -0.70271219903086     -1.18035172227871
  C           2.66233100286254      1.52813352007464     -0.57979470841709
  H           3.89072462966334     -0.21316444447853     -0.97309864877652
  Br          2.40386608900177     -2.57445461565351     -1.56958051285691
  C           3.16571488052482      0.45515280709381     -2.89585651982771
  C           2.31158782294321      1.57568469841252     -3.41042810677883
  C           1.20099176967051      1.38941910115973     -4.09836965940198
  O           0.72298991022179     -0.51281238892693     -0.88796647308400
  C           4.64494045041639      0.62441001358968     -3.28406700833609
  H           2.83280002958827     -0.46517540794678     -3.39145583991960
  H           2.65532117371827      2.57740945083995     -3.19733499012883
  H           0.83121975387025      0.40300199646834     -4.32797516519912
  H           0.60991715021810      2.21312662146265     -4.46027663705373
  H           1.70139217929919      1.93131769666534     -0.88936050435226
  H           3.42837219453693      2.27911107277533     -0.73952202880829
  H           2.61197434072974      1.30590247995637      0.48450837344823
  C           5.39118288529532      1.76715276648746     -2.60718201768407
  H           4.67686807473886      0.77195286647922     -4.36621143384970
  H           5.16331265224729     -0.31256635022749     -3.06694362913049
  H           4.90110285692899      2.72123894138684     -2.78253100458357
  H           6.39766177577044      1.82968397385272     -3.01500923454157
  H           5.47735428009906      1.60505211483793     -1.53576689981704
