14
Coordinates from ORCA-job NEB_product E -30.173301030670
  C           1.47738659101949     -0.36610710029197     -1.59451796615341
  C           2.80412024207998     -0.72641914572217     -0.99961242007395
  Br          0.96259304958229      1.39536727834309     -0.95274806731872
  H           0.69791727876748     -1.06950942365056     -1.29316863253569
  Br          2.88173402350187     -2.61591951037018     -0.49109242104529
  C           1.56184122955723     -0.32431812358567     -3.14173898840992
  C           2.71021684863190      0.49796418715152     -3.64261292799843
  C           2.59662850193472      1.76726345935163     -3.98373106251416
  O           3.74586608717603     -0.03366397811469     -0.84517999695725
  F           1.68684251723321     -1.62536665457193     -3.57079006643930
  H           0.60233042029963      0.04303468986199     -3.52952631791812
  H           3.65319633502464     -0.02696289225060     -3.69650999340779
  H           1.65744791084353      2.29326857620123     -3.93202112551919
  H           3.44777896434802      2.33366863764830     -4.31665001370878
