17
Coordinates from ORCA-job NEB_product E -41.894605133210
  C           1.87855146279392     -1.49224017160029      2.56952415110962
  C           0.39559953317475     -1.24523958018444      2.66283115858638
  Br          2.35054641953307     -0.77983315709081      0.80562030511526
  H           2.43396592691807     -0.89671596154721      3.29658612642134
  F           0.13748074869115     -0.12702956393685      3.38100218523337
  C           2.22398884748729     -2.98279977429241      2.65337306026166
  C           3.57203649718259     -3.28642969704714      2.05543792002824
  C           3.76094847524709     -4.21311337830496      1.13658959285630
  O          -0.47919490953575     -1.84603133971332      2.15145819248128
  C           2.19460642287846     -3.42767118995021      4.12121931142784
  H           1.45101683639155     -3.54975614292878      2.11990022355466
  H           4.39128425421758     -2.68917999920436      2.42805248298416
  H           2.95191707315385     -4.81374147642984      0.75529288411944
  H           4.73603355972853     -4.40272940628881      0.72472876109527
  Cl          2.42728124599878     -5.18357839678789      4.21677137202853
  Cl          3.47945709640766     -2.63396824109284      5.06321624195852
  Cl          0.62658050973142     -3.01654252359984      4.87909603073813
