19
Coordinates from ORCA-job NEB E -33.811889488600
  C           0.99757664476305      0.24526165217863     -0.35306441685545
  C           0.15428253106453      1.10062647263235      0.36467600795097
  C           0.74718306211046      0.09660250535441     -1.82357207417489
  H           2.05304013873201      0.25738812163211     -0.10574598714935
  N           0.57394646858400      1.64258490099979      1.56276472581017
  C           0.25500513010001     -1.48135365650388      0.33926582436587
  C          -1.09457372167785     -1.37602711126028      0.05906783260582
  C          -1.80474380596795     -0.29326338487929      0.67375278671593
  O          -1.13356092696018      1.07048117797305      0.14966301096112
  H           0.84192652607061     -2.21490946827571     -0.19279358962492
  H           0.58480150413965     -1.30583084701488      1.35449397127358
  H          -1.46777410840028     -1.75661457169723     -0.88021065641487
  H          -1.66869301978729     -0.19725914776145      1.74947134318502
  H          -2.83913146364681     -0.16240377789688      0.37772222954331
  F           1.31747614843408      1.13738853211237     -2.50112694355782
  F           1.33351389568349     -1.01389300388221     -2.33289014068170
  H          -0.31969525228565      0.08012181676131     -2.08428439669932
  H          -0.07550311003585      2.27977539257374      1.99610457580794
  H           1.54492335907999      1.89132439695405      1.64670589693859
