19
Coordinates from ORCA-job NEB_reactant E -33.831154276040
  C           1.73052204149391      0.03673612595923     -0.02308906504513
  C           1.22910531237979     -0.56822436360827      1.07334122031017
  C           2.02529377593902     -0.71132329468672     -1.27103518661963
  H           1.93905486650052      1.09016005073336     -0.01677203785813
  N           0.83416211867789      0.13889595041068      2.19306534400192
  C          -0.26460123054884     -4.93924450954610      2.24247827261708
  C          -0.19678430061152     -3.84615840920273      1.50822063429373
  C           0.20847578520814     -2.50200370247963      2.03249003962565
  O           1.05018371671101     -1.89828516604666      1.06432202227104
  H          -0.57708609415950     -5.88070572921053      1.82650334173145
  H          -0.02011131163598     -4.93836406169642      3.29256748141116
  H          -0.43075683785896     -3.85391207391447      0.45392848149392
  H           0.73391868007740     -2.60955085970337      2.99257843148836
  H          -0.68623399372412     -1.88056601938211      2.18491770081118
  F           3.01670160834529     -1.63982903973939     -1.10846937839829
  F           0.95253058830241     -1.42306396193578     -1.72379440029185
  H           2.34264652782732     -0.04854629192022     -2.09066994069495
  H           0.97413483690791     -0.32112177917844      3.07998515430684
  H           1.12434391016830      1.10340713514757      2.19383188454548
