19
Coordinates from ORCA-job NEB_product E -33.869327628020
  C           1.97276790416617     -1.46701786649836      0.61852276397540
  C           1.55587217314234     -0.11026491602730      1.21281737950414
  C           1.42359415941579     -1.52566843594739     -0.80640705399789
  H           3.06315776067266     -1.43174822759636      0.52216164533864
  N           0.33180325907512     -0.07719787088850      1.76200627034112
  C           1.60714777338298     -2.69626318559874      1.47341620187231
  C           0.15922796237336     -3.08126299432484      1.47755356397498
  C          -0.59360398349525     -3.11939384012803      2.56380170398696
  O           2.29369855235691      0.84690583006751      1.15876008103130
  H           2.17333360868449     -3.54443321667061      1.07636921686004
  H           1.94706690998037     -2.50946374937608      2.49428440790538
  H          -0.25281135688302     -3.37640622961658      0.52260956465499
  H          -0.20696788311824     -2.84878813593153      3.53382698539833
  H          -1.62235540051208     -3.43500089488354      2.53136536779091
  F           1.66397488767458     -2.73051899731387     -1.37884553056585
  F           0.07594483549238     -1.36133295789647     -0.84350840528050
  H           1.86453323598239     -0.75034392943191     -1.45084845677735
  H          -0.00696093415931      0.79906993369753      2.12340458860645
  H          -0.27882346423162     -0.87927031563494      1.74870970538065
