23
Coordinates from ORCA-job NEB_reactant E -49.403928096520
  C           1.49691205645113      0.15104327488406     -0.14083765753664
  C           1.52588631200892      0.38596226752412     -1.46017529269517
  C           2.01049597975198      0.99001042099602      0.98790845373071
  H           1.03965866451339     -0.77053483442591      0.17934247806499
  C           0.91312183548273     -0.66062853825928     -2.39207475572618
  C           2.62556912729811      4.67498025615334     -2.97239234343272
  C           2.96976551089629      3.40198502691176     -2.87358047024229
  C           2.62582451002602      2.53114358981037     -1.70693574512365
  O           1.98002774343812      1.36430643898598     -2.23198528378427
  C           2.97901517465336      5.55950434714539     -4.11741512421292
  H           2.06093702944687      5.14398127651769     -2.17641103400653
  H           3.52741153999678      2.91196620838287     -3.65864490096880
  H           1.95670155559136      3.05517739420245     -1.01980364001850
  H           3.53895805742779      2.23041940199996     -1.18024668642580
  F           3.34614571942847      1.23637887348812      0.89858513507003
  F           1.41779269528259      2.21398021821957      1.04842405346774
  H           1.83760069438951      0.50009788477525      1.95687371085232
  F          -0.11089470487554     -0.15259255179732     -3.08587443837678
  F           1.80806288052216     -1.10327332613483     -3.28077059124078
  F           0.44442784023870     -1.73755781814748     -1.75150749689070
  H           3.53918301657401      5.01711465752528     -4.87400244166116
  H           3.57646335186701      6.40146418065284     -3.76931953978380
  H           2.07373340959022      5.96407135058975     -4.56825638905910
