18
Coordinates from ORCA-job NEB_reactant E -38.951224361140
  C           1.72067316895444      0.03601893503003      0.01778528055627
  C           1.06945128422303     -1.06597642032831      0.43939885458224
  C           2.11580094070782      0.22126092981626     -1.41506531504652
  H           1.97665837226457      0.81282270663569      0.71604910917078
  C           0.73165437128937     -1.15294554961257      1.82374230057986
  C           0.11518754765968     -5.40623466054501     -0.93442033374610
  C          -0.21102608244441     -4.12606492210031     -0.98861720314685
  C           0.03365748714491     -3.17375887450723      0.13880757058602
  O           0.73670808082009     -2.06009908241788     -0.39415934507324
  Cl         -0.18713210357887     -6.49506567132914     -2.22030201694593
  H           0.57552682739269     -5.86720149769186     -0.07299954345212
  H          -0.65769215708680     -3.69342747177802     -1.87084075482674
  H           0.61624041215994     -3.65099758790140      0.93705550256629
  H          -0.92637040122062     -2.83739387625038      0.55875329195336
  F           2.97344151635579     -0.74960404833661     -1.82551945939866
  F           1.04193959796400      0.14116643804312     -2.24301835966332
  H           2.60290465860814      1.19147115321581     -1.59605604149398
  N           0.45877647878623     -1.22277049994217      2.93380646279866
