18
Coordinates from ORCA-job NEB_product E -38.951017706790
  C           1.22004659799528     -1.46924640395704     -0.08633875317696
  C           2.47961584788046     -1.56867017422949      0.77805272620043
  C           1.59487310366464     -0.94915028738832     -1.48066281792623
  H           0.56701513137882     -0.70473308691989      0.35650845817242
  C           2.24540447386578     -2.23988492309736      2.04625689117616
  C           0.47483727159780     -2.81609694063712     -0.06874753910897
  C          -0.54796170613945     -2.97455611175529     -1.14260502859565
  C          -1.83490819174830     -3.12055399902770     -0.88606516145521
  O           3.54495211322951     -1.10582493578130      0.47949420958800
  Cl          1.72403482676500     -4.12671831658253     -0.21946483131989
  H           0.02014217348518     -2.95848164109744      0.91579951915364
  H          -0.17770175715319     -2.98357236233977     -2.15643669572601
  H          -2.22112233730409     -3.12609260069880      0.12025516497585
  H          -2.55410038304035     -3.23573514517817     -1.67728559041902
  F           2.01216176090672     -1.92308312803443     -2.31000292433167
  F           0.51535449104655     -0.37986311212946     -2.07130777188150
  H           2.39048061721996     -0.18891558214273     -1.42423697597765
  N           2.06807596634969     -2.71802124900316      3.07018712065225
