18
Coordinates from ORCA-job NEB_reactant E -39.688246217280
  C           2.23666326455373     -0.25114517193267      0.79707039643457
  C           1.43843583328413      0.37740976214260      1.67312659823618
  N           1.76596038717344     -1.07552797122315     -0.25946995900187
  H           3.30857438448103     -0.16203772420796      0.84687220859847
  H           1.89532491120675      0.98667997704344      2.45022156374028
  C          -0.45503725931838      1.21840123968619      5.13803266646008
  C          -0.30601958866533      0.50844139341336      4.02737888203221
  C          -0.59630852279934      1.00634195426568      2.64940930905170
  O           0.11351939682862      0.30527447820230      1.65121087567847
  N          -0.17344932420432      0.64380014417992      6.42706163818745
  H          -0.79422939370881      2.24185503670739      5.18796115555418
  H           0.03625441226685     -0.51809573611513      4.10386849126598
  H          -0.40753975409618      2.08569098570943      2.57477965053253
  H          -1.65194266459458      0.82413967597222      2.41581759427740
  O           2.61706056120773     -1.56611689767062     -0.97574301450557
  O           0.57225235070855     -1.24208455880377     -0.38971862632116
  O           0.24050105683255     -0.49223360845088      6.46687762292649
  O          -0.36902005115645      1.35590702108164      7.38514294685261
