18
Coordinates from ORCA-job NEB_product E -39.685110620490
  C           1.59733475002760      0.03927928163436      2.25849214190245
  C           1.48284193233975      0.96528108901417      1.05439193339390
  N           1.24142336956606     -1.36338499671858      1.87533559364125
  H           2.66372269281359     -0.00098857884812      2.53632837170748
  H           1.63603022145980      0.44049797441977      0.09650946913954
  C           0.79360018199884      0.54894215730403      3.45948687061439
  C          -0.69806433717360      0.48790417917629      3.29042617864307
  C          -1.42747975996660      1.55342111509770      3.01936528703710
  O           1.26518768804053      2.13388641991957      1.13814253051067
  N           1.21343214531824     -0.19674998982847      4.69758313689084
  H           1.09497552921535      1.59370919132942      3.61898873068537
  H          -1.14332645106915     -0.48896506866752      3.40815439349454
  H          -0.99245471922040      2.53253970956684      2.90334022797123
  H          -2.49275551386705      1.48234044193111      2.89153114752026
  O           1.66682415014092     -1.74589028823588      0.81804421711549
  O           0.57580600693864     -1.99103092959182      2.65274190012951
  O           2.34749779918424     -0.60792216159153      4.71781739462966
  O           0.40680431425324     -0.28116954591136      5.57832047497323
