20
Coordinates from ORCA-job NEB E -47.128906976540
  C          -0.28755396853929     -0.93047363086039     -0.87255006661996
  C          -1.23185351902869      0.12933260117973     -1.03275985334891
  O          -0.76309890220851     -2.15814208382340     -0.53495691743851
  H           0.48995209557629     -0.92289818573116     -1.63966699230300
  N          -0.74944006031057      1.21965456366575     -1.92120822310135
  C           0.56169627842228     -0.36372696568776      0.76383624105176
  C          -0.11448975388435      0.76194083675373      1.28489906889105
  C          -1.49094025310888      0.65037514102287      1.48081406986838
  O          -2.07818553443911      0.46388204316243     -0.17218281890803
  C           2.03811189348532     -0.25237872024247      0.51679913291609
  H           0.31159543525482     -1.29527660656167      1.27270810829059
  H           0.30178208675015      1.74717922199700      1.10971414617021
  H          -2.04472619991049      1.52682050635655      1.78155267707207
  H          -1.88557831423439     -0.28784389668295      1.84937534421884
  H          -0.10330197742617     -2.84373536814463     -0.70427016652737
  O          -1.15840987651780      2.32996761163616     -1.68669844266904
  O          -0.00509131910276      0.90205412672781     -2.82671246412141
  Br          2.95977697710172      0.01854796865265      2.24467740827039
  Br          2.74564542615336     -1.91888537663625     -0.23625049659267
  Br          2.50410948596706      1.22360621321598     -0.67711975511913
