17
Coordinates from ORCA-job NEB_reactant E -36.706789983700
  C           1.58876347629103     -0.02598617589597      0.15494375495608
  C           0.96964668395766     -0.79593464607719     -0.75554522838793
  C           1.94594754084016      1.35875241221605     -0.18996103807934
  H           1.83496861611765     -0.40349179088515      1.13166821271598
  Cl          0.53820672859902     -2.42432323577485     -0.37922004399270
  C           0.03901905595254     -0.52704056366784     -5.35346448613341
  C          -0.24268505636122     -0.19224371235285     -4.10988377656498
  C          -0.00067486583000     -1.08287265912613     -2.93067677131036
  O           0.68692769814896     -0.30761231642904     -1.95091826466138
  H          -0.16236654625343      0.13735236570530     -6.17480056944173
  H           0.47203178882472     -1.48178189225649     -5.60315023783542
  H          -0.66821035196991      0.76973236642596     -3.86337399567784
  H           0.60407268818490     -1.95360456296553     -3.20719640398467
  H          -0.95576568619766     -1.42728686047313     -2.51140674077528
  Br          2.79111999419192      2.26093743592287      1.30005807862398
  Br          3.18462161517490      1.43607299805825     -1.72902787167066
  Br          0.36817662032877      2.41533083757572     -0.71514461778034
