17
Coordinates from ORCA-job NEB E -30.723551486090
  C           0.18945821615108      0.98234145405657     -0.26147064255646
  C          -0.08667210885480      0.39188686285574      1.09542640727860
  N           1.62035133026082      0.96379903828252     -0.53817985357471
  H          -0.14983089912368      2.01935130994383     -0.30064745173130
  C          -0.11339473826555      1.24151038382923      2.19811075114917
  C          -0.52891121366386      0.12788679547686     -1.28583895538277
  C          -0.44900012413411     -1.22012366140308     -1.11900515587124
  C          -0.20464954076916     -1.80224908226611      0.22366071993688
  O          -0.16137085826229     -0.89764520327157      1.30581624100394
  Cl         -2.57548215060331      0.76601972266936     -0.52781401780311
  H          -0.66179982145994      0.55348034510269     -2.26606524448892
  H          -0.70059196543212     -1.91663821129824     -1.89915988690819
  H           0.74478581194034     -2.35813918091355      0.24558442192774
  H          -0.99334909711866     -2.51823037926193      0.48986116115910
  H           2.01785412707913      0.03473500021668     -0.46169835397895
  H           2.12796499146377      1.60413000499549      0.05992299735738
  N          -0.07536195920766      2.02788480098549      3.04149686248287
