17
Coordinates from ORCA-job NEB_product E -30.761240137020
  C           1.51126653106509     -0.90847816927101     -1.14555059045395
  C           1.89927525430978     -1.56592039953780      0.17182862469722
  N           2.69657767981660     -0.66936398403002     -1.92520492074526
  H           0.94155959725397      0.00527714723600     -0.87546085671550
  C           0.79076868063572     -1.77056268994754      1.08923863947465
  C           0.57032348355137     -1.83342294242537     -1.94536092373237
  C          -0.65210136386347     -2.26264916909389     -1.21224337955165
  C          -1.00488853424754     -3.52753446443986     -1.06578597943156
  O           3.03115228316489     -1.82628773776907      0.48592783497725
  Cl          0.03465550501626     -0.92254989377211     -3.40708932006682
  H           1.14716457787228     -2.68317491983407     -2.31706823361433
  H          -1.27650638401835     -1.46347870046245     -0.83706676319138
  H          -0.40270779501379     -4.33391013629901     -1.45091233476165
  H          -1.90433149816722     -3.80386763000782     -0.54512879313209
  H           3.47630805175784     -0.37956972402676     -1.34852022760370
  H           2.53626992940159     -0.00065670192732     -2.66591436017661
  N          -0.01978599853501     -1.87594988439190      1.89121158402774
