20
Coordinates from ORCA-job NEB E -53.376236239030
  C          -0.13836443205777     -0.35368371836255      1.03151817928641
  C           0.47028162820521     -1.58457979554073      0.69180454826516
  C           0.38545953291828      0.42923724819431      2.20900563319856
  H          -1.22368920764486     -0.39968036914266      1.03094656193410
  Cl          2.16681164096249     -1.81949003333676      1.06758774869883
  C           0.03683860736045      0.54688321337577     -0.73464053716501
  C          -0.46866783873404     -0.41983060737621     -1.62104561592091
  C           0.18560382568723     -1.64866845113438     -1.76696890856525
  O          -0.02488384465910     -2.32723735621706     -0.18863307512700
  C          -0.70168061776216      1.86717835349919     -0.74763062327306
  H           1.11317215198063      0.67806990929837     -0.68597543843050
  H          -1.51289794246352     -0.35786489248628     -1.89020463331124
  H           1.26907055331617     -1.66226249766757     -1.78554930520882
  H          -0.27926779279242     -2.40401914803205     -2.38344277836981
  Cl          1.94511146286222      1.20993594618115      1.90261910079564
  Cl         -0.78629204994221      1.65298043362469      2.73746067041096
  Cl          0.59810997423003     -0.68935287494179      3.60365374892581
  Cl         -0.79732410666599      2.42655333597621     -2.45757830605164
  Cl         -2.36641219516425      1.70662662821900     -0.15409669759155
  Cl          0.12902065036359      3.14920467586936      0.14116972749931
