20
Coordinates from ORCA-job NEB_reactant E -53.410579087560
  C           1.40815379174647      0.93961706203501     -0.80184207835527
  C           2.26965511803204      0.14127116227853     -1.44272426120219
  C           1.56378158708815      1.38354200217978      0.60278396058008
  H           0.54220563642165      1.32395600073733     -1.31273801545251
  Cl          3.67245045459976     -0.49621616589267     -0.69441626749093
  C           0.07363388408416      2.39034436801063     -3.79741842887903
  C           1.15140580444251      1.62185888915532     -3.77912977115038
  C           1.11912562980003      0.14534710515109     -3.52531814014966
  O           2.19963713188933     -0.28585474710372     -2.70933988586607
  C           0.06586997267594      3.86108125956336     -4.00897954421010
  H          -0.91305352749564      1.98041860053756     -3.62752970793127
  H           2.13602414430325      2.03383235975886     -3.94688456057081
  H           1.27500588423391     -0.39201669672522     -4.46664393672856
  H           0.16284213168904     -0.16617537839227     -3.08967963187489
  Cl          3.07832495282199      2.30780624439196      0.83822567273009
  Cl          0.20933758699308      2.44024279567411      1.04454434783985
  Cl          1.58233745213550      0.00472874218830      1.74278368526116
  Cl         -1.10484352137168      4.27882839992067     -5.29032159681788
  Cl         -0.46807529430479      4.63700214424307     -2.48057664219618
  Cl          1.64088118021531      4.52768585228832     -4.44999519753545
