26
Coordinates from ORCA-job NEB E -52.538035169530
  C           0.07242636726239      0.91366859847859      0.72959568776001
  C          -1.23707151314899      0.76073474827984      1.22548007123473
  C           0.28376404033998      1.96117210298217     -0.34969407906441
  H           0.85039418233864      1.02163708692550      1.48287875859824
  C          -1.39248901244482      0.27216930826462      2.65320471834284
  C           0.39781258784328     -0.79310819187487     -0.05364894609479
  C          -0.71472019347714     -0.92221474610175     -0.89246379858268
  C          -2.02821759722282     -0.91584125105486     -0.30974138966479
  O          -2.20837610799679      0.48280422435701      0.38851138449431
  C           1.81124280278493     -0.85639744835116     -0.60295034202271
  H           0.33323799107745     -1.32562638956208      0.89210797335653
  H          -0.62963333642156     -0.66429242032686     -1.93543378886168
  H          -2.18085797133351     -1.61623056646081      0.51056520052830
  H          -2.85047594921158     -0.93601045390669     -1.01657958926700
  F           1.60114071982150      2.11304545242658     -0.62653979878676
  F          -0.32043681171204      1.69952211129942     -1.52329772613633
  H          -0.08572863097673      2.94045689046297     -0.00106123354030
  F          -2.65111545572364      0.34336336325831      3.08262919037614
  F          -1.00921396627789     -1.02129235005313      2.82889689016190
  F          -0.63324379357432      0.98422491048753      3.50328539024764
  C           1.95183807066826     -0.64891749821535     -2.10620661800054
  H           2.19447493578306     -1.85045286870927     -0.35351719048815
  H           2.44382512282442     -0.13890044745565     -0.07841431904181
  H           1.44485007688691     -1.43954663861822     -2.65411912066172
  H           3.00556781076746     -0.67284222775676     -2.37241261928327
  H           1.55100563112356      0.30887470122493     -2.42107470560373
