26
Coordinates from ORCA-job NEB_product E -52.565613928840
  C           2.48747687897515     -1.16492716327590     -0.64117843110990
  C           1.80610798767322     -1.15499805671084      0.69729043745983
  C           1.79685325910761     -0.12500845017862     -1.53583598517830
  H           3.52567572566582     -0.83481863169272     -0.53114139399425
  C           2.61587172668401     -1.81699636391811      1.85892765138393
  C           2.48381884134993     -2.63983960170314     -1.18528328933449
  C           1.98125643934839     -2.74171614642346     -2.59652160950937
  C           1.00238763277108     -3.55105025219839     -2.95378077652763
  O           0.72530855326374     -0.70022958649055      0.93405010266746
  C           3.88800300097201     -3.26494664058764     -1.07796441178748
  H           1.80653560743139     -3.22968131115477     -0.55690581982005
  H           2.48946670673868     -2.13845539811384     -3.33290535478269
  H           0.47287935880559     -4.15843708847921     -2.23799814363973
  H           0.68692071842092     -3.63576980358017     -3.97871508222960
  F           2.56896977998758      0.15781637619396     -2.61164288103903
  F           0.60605601460052     -0.53537827354560     -2.00737529217946
  H           1.62951020799261      0.81961385683208     -0.99269046597697
  F           2.18700514785721     -1.38691944633870      3.04113662993952
  F           2.51234081014070     -3.15273656370393      1.85411184516190
  F           3.92473925666083     -1.52697119009711      1.78083709493683
  C           4.91497084064992     -2.67363301020398     -2.03769354597673
  H           3.78427417409577     -4.33150568802937     -1.28529045795289
  H           4.25408688842343     -3.16940446943071     -0.05524293222957
  H           4.67975688050899     -2.93250230458061     -3.06602449450233
  H           5.89924499182521     -3.07219045747928     -1.80534116881750
  H           4.96568257004966     -1.58971433510940     -1.96162222496154
