26
Coordinates from ORCA-job NEB_reactant E -52.567587715240
  C           1.93997137831034     -0.26021317166637      0.17152122510851
  C           1.47939978142169     -1.47805969982713      0.48695721602638
  C           1.99995189747506      0.42933862880364     -1.15642750547450
  H           2.29804985834159      0.34774845801012      0.98601054715473
  C           1.49684076347616     -1.88643446185296      1.96161011372297
  C           3.40145142825731     -3.37147041170134     -1.35839596330342
  C           2.39528794615737     -2.96370112177516     -2.11218391667487
  C           1.02702811013543     -2.61045470054731     -1.60261537862517
  O           0.95743800574580     -2.50108577695538     -0.18343512109779
  C           4.77744954654620     -3.71963539992330     -1.83066406281265
  H           3.26539634877958     -3.47915670460307     -0.28903864940115
  H           2.49297570368972     -2.85238499126713     -3.18021650447760
  H           0.32451090141254     -3.42029686755043     -1.82986760102867
  H           0.65730610953770     -1.70399055276671     -2.08698767643387
  F           2.81027204960871     -0.18775962196409     -2.05462038743797
  F           0.77872499598171      0.50231113895126     -1.75690709209667
  H           2.36457696106167      1.46132270796469     -1.04769607759195
  F           0.29350777948969     -2.29101839153280      2.37403280934705
  F           2.34380571332753     -2.90432250860005      2.16598054267434
  F           1.87729434977828     -0.90519357513185      2.78704435328971
  C           5.01325547871836     -3.53240825926435     -3.32281696168961
  H           4.97673879663641     -4.75985864362954     -1.55399495803500
  H           5.48914378400756     -3.10463320023938     -1.27104812358759
  H           4.35729332658906     -4.17838535738990     -3.90113904322649
  H           6.04249736541381     -3.78229294421618     -3.56942465730355
  H           4.83173162010071     -2.49946457132526     -3.60887712702518
