23
Coordinates from ORCA-job NEB E -43.287317829970
  C           0.14419925734271     -0.55835510282438     -0.51084107368984
  C           0.27706135901532      0.73200087814353     -1.08453437599225
  O           1.28562651442447     -1.18114267272794     -0.00463701296737
  H          -0.50225789694576     -1.24428536419487     -1.06953796629821
  N          -0.55357187534374      1.13793830409325     -2.08321965005887
  C          -0.63049005200876     -0.14394664164322      1.21784641370495
  C          -0.44341663995036      1.22399444905190      1.47555658039630
  C           0.85905023138081      1.70219475046750      1.11330492103649
  O           0.94350438401769      1.66420603522268     -0.47088517288319
  C          -2.02419341936128     -0.68093721497925      1.25949399707474
  H           0.07670266840049     -0.81221204580929      1.70892993001480
  H          -1.27399545345946      1.89863881604575      1.29638291532484
  H           1.67808703065405      1.05781627643231      1.42765593884713
  H           1.06039252345441      2.75022910290932      1.30369827570356
  C           2.10953530164306     -1.73357778408164     -1.00756140389748
  H           2.93192862204999     -2.22081836818109     -0.48824766861854
  H           2.49971644379652     -0.95672676377555     -1.67390782895286
  H           1.56084145506381     -2.47370100034981     -1.60146457823782
  H          -0.68270193658798      2.12674028764814     -2.21935879729088
  H          -1.22830302786455      0.50831778789498     -2.47961097913451
  Br         -2.82527952683162     -0.38154384385976      3.02843428752583
  Br         -3.17431582803904      0.18375991199374     -0.05486708661474
  Br         -2.08812013485077     -2.59858979747628      0.91737033500792
