20
Coordinates from ORCA-job NEB_reactant E -46.243579831830
  C           1.03312024172791     -0.50496429268168      0.17979073323080
  C           0.53553821275052      0.40755754678865      1.01517658440669
  C           2.39702286541404     -1.07966841170619      0.36808740512300
  H           0.48107180471229     -0.86157102515870     -0.66930553414839
  H          -0.46440084553067      0.80103394229437      0.85542773965037
  C          -0.26796300431639      0.95529342812206      5.21658063966665
  C          -0.31155731226357      0.87662480254182      3.89831765399182
  C           0.53440861179006      1.70367400271115      2.97682927541728
  O           1.22975850893206      0.89344439625635      2.04701547099607
  C          -1.12593311538521      0.12747706170522      6.12501440573742
  H           0.37760215730810      1.64711059831039      5.73688925082466
  H          -0.97182996808498      0.16829776767897      3.41471746427934
  H           1.30462679676395      2.24305063520163      3.53137851539676
  H          -0.10214149627145      2.42691444352471      2.44587689833196
  F           3.38018492112901     -0.16693126054936      0.25246321528620
  F           2.56718891570762     -1.65251244098306      1.57452860102844
  F           2.66147168429261     -2.03152622605327     -0.54047712301281
  F          -1.79233343983414      0.92197846023521      7.00341807340470
  F          -2.07015913785599     -0.56558862142048      5.44843627168378
  H          -0.53987640098574     -0.59499480681779      6.71943445870524
