20
Coordinates from ORCA-job NEB_reactant E -49.148255576930
  C           2.03179960764264      0.48070520298441      0.03266056418499
  C           1.32845915860122      1.54175049950135      0.46768871572035
  O           2.61208869646886     -0.42542187497163      0.84264218912857
  H           2.13824338682725      0.36800034675786     -1.03902185447896
  N           0.78982519623031      2.43575690507750     -0.53678064123758
  C           3.00461539225270      3.94029602874615      1.84717140836169
  C           3.09440671998388      2.85825344055274      2.60400310261069
  C           2.01502184557650      1.82690490510006      2.72111860318306
  O           1.01756995731893      1.94003521376715      1.72205004119807
  C           4.11080348277308      4.93861133121415      1.73558626092682
  H           2.12978131785457      4.18403522163699      1.25957385456826
  H           3.97598693588876      2.66627213308946      3.20006448813042
  H           1.48162609914883      1.96832450505301      3.66672649588850
  H           2.45727681886394      0.82466181232280      2.71957951290628
  H           3.09442744468211     -1.08571844591442      0.33137225142010
  O           0.42301881101261      3.52373774918016     -0.15920900421634
  O           0.75917700154051      2.04247151416745     -1.68419933398736
  F           4.61852002526858      4.97830254989905      0.48838032892842
  F           3.70357516474306      6.18417593015406      2.01769780626164
  F           5.14647693732164      4.68044503168170      2.55099521050240
