20
Coordinates from ORCA-job NEB_product E -49.135733009120
  C           2.22917155335784      1.85643816299891      0.71729953774439
  C           1.05074859494385      2.53233178075249      0.03305556098690
  O           1.82234423899401      0.62851897035648      1.25919214062677
  H           3.05928388856393      1.73669566509559      0.00485468445902
  N           1.35500731753544      3.05921314659569     -1.40172823248006
  C           2.68906858833987      2.72778524951240      1.91289273014636
  C           3.77019575822059      2.01970702685264      2.68255003659599
  C           3.65107281473654      1.67817842499186      3.95016802990587
  O          -0.05192528783534      2.66682391087745      0.43428541828257
  C           3.21395477015830      4.07075905787869      1.41979536541864
  H           1.82524660328926      2.91526456354519      2.55883651302280
  H           4.66773963061089      1.80609236296152      2.11968069974814
  H           2.75763426322560      1.88325158679052      4.51502401274661
  H           4.44629451939824      1.17489829856237      4.47057789260019
  H           1.59886220417032      0.00675000191479      0.55723524972182
  O           0.49037112815962      3.72167385877579     -1.89520551943259
  O           2.41357935673624      2.73938354808339     -1.88459501152441
  F           4.31422983649368      3.94935175931089      0.66998410416446
  F           2.30891759342741      4.71677468655440      0.65638820083415
  F           3.51370262747369      4.88740793758894      2.43060858643240
