22
Coordinates from ORCA-job NEB_reactant E -49.965518646630
  C           1.09270252085947     -0.36944966686173      0.11039505804255
  C           1.59942624321712     -0.66235320380821     -1.10280605344375
  N           0.60299951439643      0.85675595443370      0.43971912076192
  H           1.10276021336040     -1.10102128631840      0.90327087675657
  C           2.19838220966402     -1.96361158220567     -1.46899629105745
  C           3.57343002450587      0.39783287815033     -4.19743913740973
  C           3.74419290021153      1.00405045680985     -3.03312048839836
  C           2.62176213935211      1.26031199884546     -2.07035544861132
  O           1.58922142467109      0.27705659900632     -2.12330086511220
  C           4.63274988051382      0.08663411976805     -5.17698305597814
  H           2.59163347589286      0.04829212327499     -4.49383754736313
  H           4.71313420039672      1.36240386455052     -2.71489544725897
  H           2.14866035414850      2.21564886180515     -2.33340649506053
  H           3.01957878742442      1.33979597116517     -1.05338547874028
  H           0.38415397693278      1.47147893979421     -0.32969683754344
  H          -0.01161267709409      0.91409868756701      1.23322184424212
  Br          1.70053385230580     -3.42636367630402     -0.30195725138868
  Br          1.68208682967585     -2.45063903220362     -3.28181391927078
  Br          4.21653789689471     -1.87212994150158     -1.42814718102189
  Br          4.87019834237700     -1.86720061013947     -5.29638530721169
  Br          4.08766883860468      0.73474669035247     -6.95427521767968
  Br          6.36489905168893      0.86536185381947     -4.77210487725314
