17
Coordinates from ORCA-job NEB_product E -41.118523692280
  C           1.67163018529594     -0.98163379464630     -1.15981414345917
  C           0.96163330659474     -1.11173261819880      0.16536771367750
  C           1.35240410556429      0.35848943093834     -1.80687445010562
  H           2.75300703660935     -1.00377074246710     -0.94883781222765
  F           1.39392429686196     -2.22055833033209      0.81447481233694
  C           1.40724451144285     -2.25652777303850     -2.01858050948393
  C           0.09370389019693     -2.27283577941812     -2.74011678084562
  C          -0.99324692104299     -2.82826114479778     -2.23854323501383
  O           0.14886692238366     -0.41894251442873      0.65617541863800
  F           2.43893255363636     -2.37004728208415     -2.91977225405021
  H           1.49720396908520     -3.12768141956504     -1.35500353261927
  H           0.10480068786971     -1.82362659189976     -3.72292127260020
  H          -1.00328121709924     -3.29304978535524     -1.26578268155177
  H          -1.92272434295747     -2.82366616602606     -2.77828029081054
  Br          2.07802196556743      1.78186395681768     -0.66015104936271
  Br          2.19249743385405      0.53448830574622     -3.55045192891434
  Br         -0.54761838386277      0.70419224875545     -2.01888800360757
