17
Coordinates from ORCA-job NEB_reactant E -41.112160501440
  C           1.57436804612306      0.06638173383708      0.11450501203283
  C           0.92782697342298     -1.06219974912788     -0.19687949221239
  C           1.96202768762886      1.00065021272519     -0.95420022668227
  H           1.81578787732947      0.29122602013395      1.13871530115768
  F           0.56656641235114     -1.92591023880115      0.75779349787674
  C           0.07957972422485     -3.62241042038321     -3.92569529641084
  C          -0.37785705600478     -2.66033048484403     -3.14691424279853
  C          -0.09915367220239     -2.60532124622602     -1.68231958923339
  O           0.61202271309405     -1.38841452514420     -1.43462116791046
  F          -0.19229576078537     -3.65816059585971     -5.23047661774733
  H           0.67699150300751     -4.46737614321576     -3.61146247921524
  H          -0.95687259528120     -1.84813689876537     -3.55951053797644
  H           0.50809934892755     -3.45848127592179     -1.36040233215456
  H          -1.03712397105652     -2.59485256333250     -1.11268887241017
  Br          2.85312654900271      2.56293675284666     -0.23530105693171
  Br          3.17946188657646      0.14815356603057     -2.26034092247763
  Br          0.39894433364161      1.61504585604818     -1.98840097690628
