16
Coordinates from ORCA-job NEB E -26.239951252510
  C           0.69659421732103     -1.07109504173643      0.52211508747222
  C          -0.64790858431687     -0.73281149164087      0.66131475178325
  H           1.37301175050883     -0.72993566624528      1.28815313975828
  H           0.93899559617648     -2.04061845000997      0.11169683183679
  N          -1.62088915352787     -1.40650237777270     -0.05498432171703
  C           1.18552437822364      0.26126408819778     -0.82987698934301
  C           0.80551604786311      1.47042917329470     -0.26074594239936
  C          -0.58492041569954      1.60007392438949      0.06944943226524
  O          -0.97056693550058      0.45477467316644      1.10793891172747
  Cl          2.88239852297180     -0.01673896510069     -1.10961301400997
  H           0.59461922683615     -0.15820791486211     -1.63690246872828
  H           1.52289250159778      1.99818879648664      0.34909874607006
  H          -1.27411465660218      1.39230430278135     -0.74821006877599
  H          -0.85278954501905      2.50185397234671      0.60760742840210
  H          -2.57077877944069     -1.13447767917165      0.14222438331756
  H          -1.47758417139204     -2.38850134412342     -0.21926590765931
