26
Coordinates from ORCA-job NEB E -50.559931530060
  C           0.06723957880798      0.91336850347020      0.39982303336565
  C          -1.20274224411601      0.30797083665915      0.23706195461133
  C           0.23999595580533      2.29487613631775     -0.16788086541793
  H           0.45860405456708      0.89477029442162      1.41752915676660
  C          -1.87009789608094     -0.43282576185271      1.36598248062177
  C           1.10338858526756     -0.42370188943856     -0.54445713573613
  C           0.51840756708246     -0.48714252972726     -1.81515458894454
  C          -0.87032840729062     -0.82324899407848     -1.89153086867479
  O          -1.68073294307367      0.19021265096831     -0.97110547135691
  C           2.59009522707403     -0.15752571163218     -0.47496905306594
  H           0.86097058039129     -1.21302663682714      0.15999782794252
  H           0.97013264777376      0.06060063910145     -2.62663185777956
  H          -1.15620961697752     -1.76976205321301     -1.43755374206320
  H          -1.32807535740099     -0.68514606436804     -2.86461797153716
  Br         -1.07891992105269      3.44424247689639      0.81525866122480
  Br          1.96592956205519      3.10718856953648      0.22383705282328
  Br         -0.15415566635061      2.54714903675317     -2.03755164820849
  C          -1.05407922478294     -1.58016463713990      1.96828994963632
  H          -2.81669093174165     -0.81919027181375      0.98449402062234
  H          -2.09436374148835      0.28899945624539      2.15655571244417
  H          -0.86360150738151     -2.35693605312155      1.23059813054215
  H          -1.61651958957432     -2.02562136854848      2.78464333786413
  H          -0.10594653851796     -1.22763602102669      2.36783516463735
  F           2.99595456515092      0.79435049948023     -1.33915728050771
  F           2.96395190898140      0.23322852565916      0.76789655447177
  H           3.15779335287277     -1.07502963272155     -0.70919255428182
