26
Coordinates from ORCA-job NEB_reactant E -50.610142746300
  C           1.31151054587377      0.00446787875515      0.31621190754095
  C           1.57877962153352     -1.15762963012322     -0.30634670386592
  C           1.29972144977671      1.27160855411900     -0.42517803370836
  H           1.10419672246843      0.03052263092611      1.37199904190711
  C           1.63866996431675     -2.44515137959964      0.46028244236663
  C           3.72186461014570     -4.07034388051774     -2.11692172781172
  C           3.45609190656657     -2.77565753503860     -2.13409511929940
  C           2.10576867797933     -2.19908978697522     -2.42881052473571
  O           1.80905395030836     -1.07001867308309     -1.63454142905155
  C           5.07762241550210     -4.63640000449501     -1.82075400125136
  H           2.96946347990635     -4.82307487569896     -2.30398041360928
  H           4.23058771405093     -2.04465995830783     -1.94131608334109
  H           1.31718657724241     -2.95726660348503     -2.35308726689500
  H           2.10259825896528     -1.79884947400303     -3.44966000958860
  Br         -0.04977657938868      1.26360484671411     -1.87434773700587
  Br          0.90911948909536      2.77974807476353      0.73325285990961
  Br          3.03395765862111      1.62505952198534     -1.30431081813103
  C           2.96231248735870     -2.57309703991299      1.22046852201426
  H           1.51841655471670     -3.29868714449718     -0.20558383783606
  H           0.81565207722682     -2.45730282692801      1.17724545899444
  H           3.80935782167078     -2.55874928236831      0.54008020852149
  H           2.98081035415203     -3.51038670176944      1.76999048430370
  H           3.07558391656056     -1.75395475103598      1.92571506907883
  F           5.92158765494736     -3.70415189520701     -1.32412541644038
  F           4.98239617398426     -5.60813915473035     -0.87482094722751
  H           5.55736649641879     -5.08960090948656     -2.70556592483818
