16
Coordinates from ORCA-job NEB_reactant E -36.119791504860
  C           0.94721699890588      0.69872813242076     -0.52969482956145
  C           2.15212790746080      1.21676235664881     -0.34041423499081
  I          -0.69032159250075      1.42025356168646      0.55929556974529
  H           0.74886313791827     -0.10374370085756     -1.21355009068081
  Br          3.60944858269707      0.53236659055333     -1.39659969019828
  C           2.04230095346537      4.22110698389652     -1.32287042728348
  C           3.18451189564624      4.07336372169965     -0.66436745775537
  C           3.45417325077497      3.06964421551291      0.40347855311497
  O           2.42398180782309      2.12588963621479      0.60029913272648
  N           1.90819509462127      5.22502372177801     -2.34321567253545
  H           1.13959374834077      3.65058460679161     -1.16682985327144
  H           4.01355492902618      4.72667612608961     -0.90854164390098
  H           3.55317835658964      3.58207640085400      1.36679628330923
  H           4.40735551420432      2.56339089649553      0.19202694598515
  O           2.85792564615812      5.94034967633205     -2.57112581605289
  O           0.83879376886876      5.27742707388348     -2.90678676865015
