25
Coordinates from ORCA-job NEB_product E -36.432636047510
  C           2.01494002395285     -1.74744165655809      0.04041912129080
  C           0.69211518409215     -2.05059196520159      0.74129488428826
  C           1.79950596481804     -0.58316643258960     -0.93986985403036
  H           2.79422677338153     -1.48682205145998      0.75775798702319
  O           0.66381930068301     -2.27548779494793      2.05730245221614
  C           2.42642487932197     -3.05392574301786     -0.67235276939939
  C           3.68692265215285     -2.89704306781992     -1.47354220388713
  C           3.74719615150937     -3.01877883226132     -2.78622776873907
  O          -0.34444502867450     -2.08366671723785      0.13197529072841
  O           2.61484357322236     -4.02930403251222      0.34589651411560
  H           1.59765903245848     -3.35339680322567     -1.33162046268248
  H           4.57569223463357     -2.71865314696332     -0.88256967371749
  H           2.86629952878824     -3.20940635317306     -3.37722732150886
  H           4.67260561928672     -2.91776505690993     -3.32745876776026
  C           3.05549646432807      0.25140670743515     -1.15614127552767
  H           1.01026749881081      0.05981892107934     -0.54513834508286
  H           1.44483196026830     -0.97648996177950     -1.89284122310305
  H           3.40271171874787      0.67420797781766     -0.21549255766841
  H           2.84190717633973      1.07115301089453     -1.83763170831251
  H           3.85380754083742     -0.34914389396974     -1.58324993551857
  C           1.83031668786201     -2.34663941114665      2.85642780115413
  H           1.48759144166851     -2.68371822724081      3.83351659309180
  H           2.29867378647425     -1.36390206057546      2.96185391710783
  H           2.53999334998421     -3.06747324618696      2.44850778404796
  H           2.80309648505217     -4.87737016244922     -0.06908847812602
