25
Coordinates from ORCA-job NEB_reactant E -36.415674851920
  C           2.11660722023788     -0.14509584265335      0.17746831503722
  C           1.82512962945626     -1.41183522570928      0.45935192294907
  C           1.87931212295023      0.51526109422794     -1.14379342460551
  H           2.57552789601289      0.44700029961227      0.95335694894440
  O           2.14610378552537     -1.91768718226216      1.69419779046632
  C           3.12544254540825     -5.06794886274867     -0.55689241586400
  C           3.13892201307983     -3.74458403737775     -0.64011146595409
  C           2.07212138307137     -2.94953568038058     -1.32378852391930
  O           1.20304279679079     -2.27136756675788     -0.40870384502869
  O           4.04576338656002     -5.83331035044588      0.06891798278566
  H           2.35732308792061     -5.67379910264039     -1.01674490795004
  H           3.91956885338518     -3.17257454148842     -0.15350593806530
  H           1.40714134899358     -3.59951795188812     -1.89608653806631
  H           2.53095951027532     -2.21308150424762     -1.99663162510537
  C           3.19370503093376      0.88171197018031     -1.83527103301964
  H           1.30287837228626      1.42993414211576     -0.98019260364686
  H           1.28817159940704     -0.14205367072328     -1.78300608927827
  H           3.77517304204494      1.55419297530840     -1.20876844141435
  H           2.99913566683758      1.37493831912062     -2.78496447691595
  H           3.79083407579559     -0.00822383065669     -2.02392992925481
  C           1.35851917005539     -2.99556263902083      2.16052599948628
  H           1.71628086719330     -3.20491588137919      3.16676245172565
  H           1.47742682490555     -3.88362258079214      1.53338384290329
  H           0.30060031799905     -2.72085453332716      2.19237543811887
  H           4.71430945287396     -5.27186781606593      0.48305056567175
