29
Coordinates from ORCA-job P E -44.426139798750
  C          -1.27774682593711      0.31635768264820     -2.39333597204284
  C          -0.04125850537752     -1.73810943075721     -1.05095685290004
  C          -1.37936494729973     -1.99612351370530     -1.66568432814636
  C          -1.97692887760181     -1.00935469138831     -2.31351731795116
  C          -0.78927586704012      0.71832007066695     -0.98408075974798
  C          -0.06900906241754     -0.42488153676460     -0.24436233367379
  H          -1.81461476271758     -2.97797518772628     -1.56911244376566
  H          -2.93727500028470     -1.11697923376646     -2.79204928030628
  C          -2.14338971644036      1.40718835960184     -2.96408470272705
  H           0.26811094175829     -2.55767356410153     -0.40258495731573
  H          -0.38960570846837      0.19799261884423     -3.02738501324577
  H           0.70391970388190     -1.63773704329795     -1.84704773587758
  H          -1.65436139636925      1.03823895050964     -0.40192567391635
  H          -0.57412905062310     -0.62045925705106      0.70646024564427
  H          -0.12530821738091      1.57930552049491     -1.08487131170924
  C           1.35660971149707     -0.00915216778641      0.10857643642325
  C          -3.42508792197106      1.61872027434313     -2.46943565240229
  C          -4.22086412154849      2.62700913917040     -2.98165320854885
  C          -3.74405872696078      3.44152697219547     -3.99486246178169
  C          -2.46821163750106      3.24098509296835     -4.49180141129317
  C          -1.67410778965163      2.23022199520848     -3.97853808465184
  H          -3.80331358840992      0.98532308122420     -1.67928666289130
  H          -5.21616381661805      2.77831667816922     -2.58948076129408
  H          -4.36529727475583      4.22895596654126     -4.39539272134668
  H          -2.08983179039455      3.87257328076647     -5.28229058004064
  H          -0.67886542727487      2.07764501824404     -4.37203989068107
  F           1.99162876286647     -0.98225834283610      0.80972069778147
  F           2.10398543663235      0.19661796796993     -1.00407780240328
  H           1.40228547640826      0.91221529961449      0.71101054081174
