25
Coordinates from ORCA-job NEB E -40.131438499190
  C           0.41597822488448      0.26702594157126      0.97599272225884
  C          -0.97951051878105      0.10718981101909      0.78703073427508
  N           0.86850484065771      1.47368578815301      1.45912114095778
  H           1.01492670871235     -0.57745067075883      1.28880899868875
  C          -1.62453910512893     -1.25743064614308      0.69219348104291
  C           0.72156760015460      0.23678233655423     -1.04208645765261
  C           0.04633774625327      1.39184939594393     -1.44661499951644
  C          -1.34769749894431      1.40937240488647     -1.36223324937996
  O          -1.64038200277162      1.12619876682720      0.37585847712780
  C           2.21863147282237      0.17486425036320     -1.17208947356647
  H           0.27723133170572     -0.72632786638727     -1.26214899961216
  H           0.58471914990925      2.32941860805195     -1.42027696052332
  H          -1.89532645528474      0.53824169313279     -1.69659988344162
  H          -1.86427041355951      2.34321370591250     -1.52186273067254
  H           0.28304946807575      2.25475750596612      1.19376708125457
  H           1.85576049454552      1.65684798530125      1.37095938906086
  C          -0.79718830667740     -2.42092918029459      1.21916139104535
  H          -1.89765073827532     -1.43929069079571     -0.35505648206624
  H          -2.56580387956484     -1.19707990744638      1.24577905340140
  H           0.10231689435286     -2.57183652950092      0.62712539152416
  H          -1.38415971985098     -3.33584180017996      1.17634024065261
  H          -0.50948902567179     -2.24851272199872      2.25324463613521
  F           2.83764015676818      1.27846623187214     -0.67900687579322
  F           2.73578773874273     -0.87809558129202     -0.48586003167135
  H           2.54356583692574      0.06488116924233     -2.22154659352940
