25
Coordinates from ORCA-job NEB_reactant E -40.156445726330
  C           2.13688134886083     -0.48724854586231     -0.38764465662844
  C           1.39426675727355     -1.17175758583192     -1.25943885803699
  N           2.86278745732030      0.70699686206125     -0.53511119280012
  H           2.12315997756024     -0.85551075887895      0.62841812101467
  C           0.67984517375864     -2.43228391612205     -0.84190880085190
  C           3.83899036796649     -0.81430437987507     -3.48905248584044
  C           3.03687960901814      0.23049940095054     -3.62260583373919
  C           1.59165591348217      0.23271239696350     -3.21918548475833
  O           1.15711134735689     -0.94982974621314     -2.60890355053868
  C           5.28537754637668     -0.81191463930640     -3.86971163637944
  H           3.49574075814541     -1.74086043307848     -3.05319521573526
  H           3.39407198971794      1.15379490365359     -4.05899037493547
  H           0.98179368423143      0.32891959150694     -4.12734483508127
  H           1.38559472132531      1.10483315267648     -2.58409046573293
  H           3.31777271255613      0.81573999807382     -1.43154601405269
  H           3.53142831254479      0.83162112324405      0.21165154454284
  C           1.46503613805593     -3.67706476293963     -1.25868765961405
  H          -0.29738861037605     -2.45006540347176     -1.32701645831219
  H           0.53403240436273     -2.43333985301393      0.23791027438462
  H           1.59090074993978     -3.69335195504747     -2.33840075041855
  H           0.93548582258865     -4.57827808093302     -0.95898700069489
  H           2.44731798164273     -3.67988277869174     -0.79081167273041
  F           5.68170183750661      0.37376573046137     -4.39151559357987
  F           6.06685613707763     -1.01556380633331     -2.77037646057818
  H           5.54099986170703     -1.60122651399233     -4.59645493890284
