23
Coordinates from ORCA-job NEB E -63.749100300040
  C           0.51535160604099      0.76551625416513      0.35745235050735
  C          -0.83998644650009      1.16119692348920      0.40067852074430
  C           1.33272323734732      1.36877661521518     -0.77023643204287
  H           1.06566867865343      0.86168933779985      1.29104179634300
  C          -1.54269321448511      1.30800989442965      1.72706308119449
  C           0.34885322710434     -1.08799230131419      0.00057043611091
  C          -0.42766371102605     -1.10897158685716     -1.16664632881278
  C          -1.72115162085585     -0.48232478909404     -1.13746882740784
  O          -1.58806734021085      0.99031568482028     -0.65376501347628
  C           1.64809266725299     -1.85183163191989      0.01036534008240
  H          -0.17990362098574     -1.28625008227148      0.93461866400959
  H           0.04458295449211     -1.26789854593329     -2.12483229288965
  H          -2.40620995280016     -0.88740143639522     -0.39210174678647
  H          -2.19333208209609     -0.38501495871005     -2.10982569470972
  F           2.62492600968147      1.03534640694653     -0.67728870854026
  F           0.93325516260695      1.04812658982713     -2.00009629185704
  F           1.28962396145925      2.70629002238074     -0.68892509429115
  Cl         -0.53696577490346      2.15135975932471      2.91374608885252
  Cl         -3.06847461133100      2.17324886829172      1.50932870189172
  Cl         -1.92908560291745     -0.33463859413912      2.39789941703079
  Br          1.15656543203223     -3.74106923070648      0.33404411803088
  Br          2.66309602688107     -1.81292905622701     -1.64108425144803
  Br          2.81079501455967     -1.32355414312219      1.48546216746414
