23
Coordinates from ORCA-job NEB_reactant E -63.781388474970
  C           1.43342562098073     -0.16519744475540     -0.01445553861235
  C           1.46522296100712     -1.09059804374703      0.95186591331709
  C           1.97596237167916     -0.21113838216807     -1.40325406923842
  H           0.94530006084563      0.77282987792827      0.19493896893887
  C           0.85328845511714     -0.79982123858436      2.31538650620212
  C           3.22196141155903     -5.33080937863414     -0.32159556210145
  C           3.15132540347305     -4.25681038636109      0.44792011840508
  C           2.71415979143878     -2.91612784289328     -0.04725238705024
  O           1.97995151361837     -2.31621677688697      1.01394244069033
  C           3.67892712852726     -6.67345281729646      0.09707686058707
  H           2.94787907964773     -5.28281926942313     -1.36916791226118
  H           3.41175568669456     -4.28193854374917      1.49698407936779
  H           2.09775615531929     -3.01408501307256     -0.94538381438185
  H           3.60416058230621     -2.31545444851353     -0.27588128416331
  F           3.31437447049271     -0.37372415161439     -1.46666239739067
  F           1.45653568823418     -1.19798072875157     -2.16319236016451
  F           1.71072456845697      0.92867731697838     -2.04400644801604
  Cl          2.19743683283198     -0.68943938653542      3.48359731289926
  Cl         -0.08468221194327      0.68733652911861      2.39573222826764
  Cl         -0.20266659942908     -2.15501522516293      2.77405714986225
  Br          2.25539815579822     -7.98571818603391     -0.27142787815027
  Br          5.25996936251274     -7.17973782960903     -0.97307711362137
  Br          4.15683351083149     -6.82465863023283      1.96895518661415
