23
Coordinates from ORCA-job NEB_product E -63.789224510890
  C           2.23425405890856     -2.15955250807344      0.60852018036109
  C           0.84480181120696     -2.24894521075567      1.24753523821725
  C           2.17002885648715     -1.04464812355220     -0.45192024023937
  H           3.00179066122954     -1.87239697067233      1.33307875355334
  C           0.71352935706133     -1.83190524530968      2.72374822106137
  C           2.58894781416812     -3.48769376599472     -0.10648159996140
  C           3.74624087304245     -3.30935731537777     -1.05499203504148
  C           3.66314081550333     -3.55488737937389     -2.34888676776823
  O          -0.12288682120228     -2.53338155622584      0.60732701150237
  C           2.92825804495790     -4.60685147635841      0.87481526496695
  H           1.70203010780809     -3.80422660290753     -0.67411879288582
  H           4.67189577509033     -2.97343769211107     -0.60789962309409
  H           2.74787592307782     -3.88279550547026     -2.81330156689149
  H           4.51347023198488     -3.42859207868052     -2.99456877153658
  F           3.39374746573857     -0.66131896571458     -0.83433210168921
  F           1.51302554470223     -1.41488977222144     -1.54990149703918
  F           1.56968275093330      0.05472675893859      0.00858117506444
  Cl          2.15118862717521     -2.14976046098473      3.70261415877419
  Cl          0.42475588403042     -0.06753119174418      2.67713630165413
  Cl         -0.68627832393630     -2.63877180572267      3.44165506108453
  Br          3.35171016117545     -6.22441706126648     -0.12365260292886
  Br          4.46977949427850     -4.17519325646650      1.98114437962456
  Br          1.43111088657843     -5.04307281395468      2.05529985321148
