17
Coordinates from ORCA-job NEB E -30.392131548540
  C          -0.44700022866756     -0.27652969094198      2.39667099692684
  C          -1.43867440839081     -0.30432507800500      1.51325265698142
  F           0.25521062765636      0.84358807789916      2.63326604113143
  H          -0.13342219208202     -1.12466902057683      2.98102614091920
  F          -2.08520193247171     -1.49244517111574      1.37742703452308
  C           0.51654529619684     -0.24732069686482     -1.36632869182598
  C           0.18674837633957      0.67742731080875     -0.47748753378166
  C          -1.19693252332616      1.22285682882408     -0.33394023041542
  O          -1.96200090005216      0.65293241408821      0.76243597632734
  C           1.88393604692660     -0.81331266097567     -1.52849995220854
  H          -0.23303818113307     -0.63422177820071     -2.04572498567892
  H           0.92742502885501      1.06745196125876      0.20660421159420
  H          -1.78619255631805      1.02313188893361     -1.23481870337690
  H          -1.17204788730275      2.30075698680567     -0.14672763375288
  H           2.24841717304021     -0.62527949594311     -2.53774283876253
  H           1.85892500684077     -1.89303964522887     -1.38506403302128
  H           2.57730325388893     -0.37700223076550     -0.81434845557940
