17
Coordinates from ORCA-job NEB_product E -30.421255103500
  C           3.05772605682171     -0.93446555121273     -1.87342458013383
  C           1.67550822711371     -0.56824337642423     -1.40367561113508
  F           3.97001964365226     -0.49839471014557     -0.94829555101775
  H           3.15105201043736     -2.02836907123486     -1.92622256637102
  F           0.75730890357803     -1.18505916739051     -2.20940825227957
  C           3.33448119577495     -0.29824079643392     -3.25586346454986
  C           3.17364914679221      1.19329082206590     -3.16179321557433
  C           2.27480968262805      1.88106267600616     -3.83835408861309
  O           1.31661373579201      0.12668839055484     -0.52875756502950
  C           4.74400218970041     -0.66645369585402     -3.71918858161119
  H           2.59659052242269     -0.70695823389228     -3.95348325037695
  H           3.85721859004266      1.68368408469096     -2.48279200731992
  H           1.58418164645528      1.40436014170898     -4.51531227780652
  H           2.19136386585005      2.94968214575856     -3.74556301340571
  H           4.84369553470606     -1.74375451317094     -3.83070552609188
  H           5.47979934101851     -0.31920170363332     -2.99804299757882
  H           4.94687970721405     -0.19552744139301     -4.67741745110499
