67
Coordinates from ORCA-job A2R E -89.684699109730
  Ru         -0.50420951819223      1.68201524388794      0.14825792702352
  H          -0.54607300198285      3.22505615677003      0.01915664178241
  N           0.87435132053624      1.96065873857705      1.67930527634133
  C           0.48692137135771      2.44114077987364      2.87499918698897
  C           2.17315590674316      1.65371729922141      1.50482771749026
  C           1.37737477834447      2.60860053551942      3.92564750709445
  C           3.10915118529118      1.80712975000410      2.51749490627511
  C           2.71238547376542      2.28502368737166      3.75408432767596
  H           1.02092082368797      2.99643485660168      4.86798327246092
  H           4.13806629282991      1.54265197772921      2.33038095805299
  H           3.42150152667132      2.40608396998450      4.55773397167175
  P          -1.99295473619404      1.86083672133492      1.86752388663168
  C          -3.55660724037557      2.93386695138864      1.75363628690683
  C          -2.38970156643387      0.30350686096714      2.90322894645566
  P           1.36163965003940      1.64925555202698     -1.08397962586321
  H           1.78031517220815      0.84176810310344     -2.13680419684010
  H           2.03077116093217      2.77535341997983     -1.59164583162615
  C          -0.94610259611935      2.84416248721582      3.03641368099958
  H          -1.04289770709095      3.88052963257756      2.68863749755238
  H          -1.26586791871423      2.79119445035987      4.08039003594898
  C           2.59012011909680      1.10739093279372      0.17529973063184
  H           3.62028563043820      1.38005614501394     -0.07062324824191
  H           2.51548652675763      0.00910478723486      0.20347300593461
  C          -1.72174032258826      1.41041753846557     -1.20765391632227
  O          -2.48339521313075      1.20514481246560     -2.05416544104674
  H          -0.33917500524141      0.15245847134497      0.33311727660256
  C          -3.99546625894568      3.59220846569333      3.06245920183799
  C          -3.25849530812856      4.04413868456121      0.74391714183025
  C          -4.67864119865498      2.07330670696514      1.17099755560618
  H          -3.24518182735723      4.29182756100651      3.42350601230231
  H          -4.90949707538855      4.15636016673551      2.87685870673738
  H          -4.20552265596727      2.87352358595997      3.84579622569804
  H          -3.01149949114544      3.61904768444018     -0.22723545627742
  H          -4.13379237382299      4.68369356322995      0.63344506336889
  H          -2.42414575408275      4.66585213992978      1.06185322216747
  H          -4.29639725932506      1.49169225114307      0.33047726420170
  H          -5.09956247909585      1.39905158673010      1.91242457126154
  H          -5.48401301375678      2.70963133082197      0.80558641158754
  C          -1.03727432265805     -0.23512936512497      3.38313285038997
  C          -3.28152311256414      0.49493560551997      4.12785596189226
  C          -3.01256837130998     -0.72457683892932      1.95558265002621
  H          -0.60626593182315      0.39349164578135      4.16078417905631
  H          -1.16305764844567     -1.23545461821200      3.79761397648097
  H          -0.33343588238171     -0.30128789379107      2.55375781353845
  H          -4.30304879582198      0.74078245156621      3.85262028641348
  H          -3.31007500890463     -0.44024283234410      4.68805252994708
  H          -2.89246437746016      1.26403586293268      4.79233572899248
  H          -4.06294401798260     -0.52019847131028      1.77063344939715
  H          -2.48605593476217     -0.70497388189801      0.99981235504610
  H          -2.93748950067058     -1.72556061304373      2.38075862057029
  C           0.99800665350824     -2.41190425442863     -0.14584086098806
  O           2.12017431912639     -2.08436800913880      0.18698830092417
  C           0.45542340199717     -2.06586138504558     -1.48001290693107
  C          -0.91072537449768     -2.03273330944676     -1.75497971249698
  C          -1.35844404743276     -1.64672953616286     -3.00368336322098
  C          -0.45411739743916     -1.31120556121160     -3.99869029957679
  C           0.90619803947219     -1.36180552441156     -3.74309967479180
  C           1.35727917497971     -1.72565889604719     -2.48866663369847
  C           0.09883633552176     -3.18751456222792      0.78071675903899
  H          -1.62940171818806     -2.27964364121599     -0.98948310379964
  H          -2.41861479024039     -1.59902470204594     -3.20195411999138
  H          -0.81023303166010     -1.00863962542777     -4.97237049077187
  H           1.61336535144735     -1.10719027476845     -4.51967726656624
  H           2.41535294238055     -1.76617739352514     -2.26905219359683
  H           0.67589460536167     -3.54811819649409      1.62914479421185
  H          -0.36573166564052     -4.02237048051157      0.26232978506566
  H          -0.68166731087665     -2.52296928806703      1.14618488453540
