67
Coordinates from ORCA-job A2S E -89.686188184360
  Ru         -0.22099239623801      1.41777184130076      0.48555975702219
  H          -0.35690965137495      2.85230508669126     -0.08570950194286
  N           1.01159163787147      2.24452566808952      1.94564918773135
  C           0.49795122336019      3.02343241269553      2.91500357966568
  C           2.33820584325111      2.01480293321550      1.94829945366494
  C           1.28805250154420      3.57667260107612      3.91249069110226
  C           3.17749395807836      2.54690948389789      2.91625174587003
  C           2.65153222953173      3.33757448066894      3.92315859900733
  H           0.83127384671572      4.19628851284317      4.66941791337294
  H           4.23439952495125      2.33345606462667      2.87544064204255
  H           3.28423903077672      3.75845925225208      4.68864980437648
  P          -1.84689136910402      1.94991921071410      1.99687414665052
  C          -3.46930795826279      2.79835602462589      1.48725192188616
  C          -2.20729348801711      0.74006988292931      3.43121398528954
  P           1.75348625226788      1.24204835754587     -0.57529906494491
  H           2.38485014211135      0.32671445572580     -1.39841448315138
  H           2.34063732821030      2.33866287316041     -1.23155350802792
  C          -0.96655854238535      3.32694171628782      2.86637583639043
  H          -1.10633705410499      4.19885853884234      2.21482410875886
  H          -1.36404381117722      3.55985810223872      3.85770769099869
  C           2.89124894311586      1.14363399509159      0.86602679198869
  H           3.92709718261783      1.39694553599976      0.62417959478169
  H           2.84460312654389      0.09075684765464      1.17565879112112
  C          -1.33321588914594      0.68140539913921     -0.77672309675090
  O          -2.03579022280368      0.18407154310627     -1.55517606745490
  H           0.02572428963263      0.02267166515422      1.11139238906718
  C          -4.04485241295606      3.77581230917258      2.51334244123109
  C          -3.17986571343063      3.57982755944669      0.20398082167522
  C          -4.48521904704214      1.70861089638695      1.14189281298169
  H          -3.38173225453795      4.62421500409512      2.66547478792476
  H          -4.99037370346853      4.16162930638589      2.13217934149739
  H          -4.24088889276986      3.31185996554358      3.47269267809572
  H          -2.83956466239772      2.90894674841397     -0.58263339164967
  H          -4.08712735038873      4.08100149234650     -0.13258077890937
  H          -2.41292272147774      4.33637712833748      0.35601444942494
  H          -4.00545943897919      0.93680337812114      0.53773605776566
  H          -4.90959677485209      1.25336936194273      2.03301305501855
  H          -5.30462085595954      2.13366146735345      0.56284557368691
  C          -0.85724601656570      0.47810988584568      4.10667812770675
  C          -3.19059694630381      1.21013324003585      4.50079257311056
  C          -2.68844189235806     -0.57350613280410      2.81284884037523
  H          -0.50611622921408      1.34520357293256      4.66444466680629
  H          -0.95069224798154     -0.35316062602031      4.80504106434429
  H          -0.10984869717611      0.20274262919247      3.36314161115721
  H          -4.20520091375776      1.27715378736518      4.11874341277006
  H          -3.19519723414721      0.48239715162304      5.31276133601923
  H          -2.90029530736258      2.17074999486247      4.92226974345740
  H          -3.72568404395005     -0.51983349896120      2.49667207562316
  H          -2.07293727919351     -0.81930919993705      1.94705662186148
  H          -2.59805907010340     -1.38449597056761      3.53452378854287
  C           1.15513845624819     -2.10634355832355     -0.64756896742629
  O           2.23427706920427     -1.71022452721495     -0.25019707743588
  C           0.18240697556142     -2.74438194545653      0.26845236039119
  C          -1.16574343478966     -2.89557740084482     -0.05158339197847
  C          -2.03098052580364     -3.47758983816713      0.85583097109326
  C          -1.56610565919844     -3.92085398847132      2.08384871732643
  C          -0.22933569812691     -3.76729125770447      2.41353006836316
  C           0.63663034739813     -3.17906543696879      1.51353555644692
  C           0.76144621537985     -1.98434479213141     -2.09597807088306
  H          -1.55018193995310     -2.53253430980583     -0.99133118337084
  H          -3.07687260147683     -3.58224123925870      0.60699376349165
  H          -2.24799102994500     -4.37944400504982      2.78552862486625
  H           0.13472580012613     -4.10365655648255      3.37369480594747
  H           1.68114776784887     -3.04607840617004      1.75505169255367
  H           1.64403703664475     -1.79002588680972     -2.70156916373536
  H           0.08050102196744     -1.13764782093270     -2.19603739056720
  H           0.26089322732153     -2.88161096689410     -2.44898393411634
