67
Coordinates from ORCA-job A3R E -89.654419054510
  Ru          2.00166647781408      3.38834968633607      0.19879471755358
  H           3.37097701474385      4.04527634093295      0.17127243760183
  N           2.63571325535651      2.39969512917835      1.94103367458269
  C           2.65891058307745      3.00733158939787      3.13588548451864
  C           3.01113359435031      1.07763904504884      1.84776926204078
  C           2.88561008669286      2.33029566245163      4.31380021193329
  C           3.21195374662068      0.33420620171663      3.04981392566735
  C           3.13509748443107      0.94908739274593      4.26031511352770
  H           2.88970862301854      2.85585421648873      5.25523147704183
  H           3.44337152910521     -0.71654503256505      2.96290267964884
  H           3.28919294700530      0.39536867626725      5.17506425964580
  P           1.40372784281760      5.00205857054127      1.73688593568819
  C           1.88292232144515      6.81396959075722      1.46142026339243
  C          -0.32853634165231      4.91627457745951      2.52568999430886
  P           3.03499342778771      1.59019130205515     -0.77937022640008
  H           2.68768179091808      0.77342265164642     -1.84803155155174
  H           4.33936509885975      1.79260271941019     -1.27396078631622
  C           2.48852651733934      4.50230480150578      3.13916791729294
  H           3.47110613944832      4.93873088526531      2.92224581210833
  H           2.14578782943002      4.87519853786281      4.10735881747050
  C           3.15553781438205      0.49972505868030      0.59445964387054
  H           3.55323150593088     -0.49938774365001      0.48661318721744
  H           0.95762520496902     -0.06192391041948     -0.12336348223718
  C           1.47498977786235      4.30887454174245     -1.30883544821682
  O           1.19504349222847      4.95459405575559     -2.22383579616341
  H           0.51316191486462      2.29766879620767      0.24194975609816
  C           2.14009309962035      7.60735121857011      2.74361230356180
  C           3.17691679970965      6.79759354064568      0.64340705705293
  C           0.80346887832038      7.48844287607944      0.61452957801349
  H           2.96049711590083      7.18051781005126      3.31529699259857
  H           2.42109130177182      8.62476919931026      2.47273335169440
  H           1.26513026771446      7.66684457816646      3.38077996378183
  H           3.01262557091259      6.32496724990642     -0.32426227790608
  H           3.51903976089441      7.81820533441816      0.47753704298781
  H           3.96925317734604      6.25457159679713      1.15592690213698
  H           0.53638131889104      6.85087348640344     -0.22809916318540
  H          -0.08974516018884      7.70735715695939      1.19401794396665
  H           1.18076698855522      8.43035346231943      0.21860226791122
  C          -0.38698015108932      3.54745228990731      3.21307306579801
  C          -0.68157390187257      5.97788783871357      3.56313447307040
  C          -1.34196906824681      4.94937575429266      1.37876842076652
  H           0.14806482394265      3.55586658286923      4.16028080034695
  H          -1.42123479070906      3.27231393231490      3.42023705009576
  H           0.05424603486520      2.77335146793040      2.58412047031078
  H          -0.78621094682211      6.96307245831371      3.11797869563109
  H          -1.63894114215646      5.71933308694534      4.01676296823023
  H           0.05957859508051      6.02004892240291      4.35858403364460
  H          -1.45773064804726      5.95289256022293      0.97963841849709
  H          -1.02038768954912      4.30156675891700      0.55935661467822
  H          -2.31967940871018      4.61326578365575      1.72393038327535
  C          -0.21142235561014      1.50214710215100     -0.20043835040951
  O           0.52673546599557      0.47669860016996     -0.80682645911860
  C          -1.01027726805544      2.18059040551234     -1.29763220277123
  C          -2.31212981281800      2.62998273108463     -1.11886889432016
  C          -2.98444209159992      3.25345298904944     -2.15652800968598
  C          -2.37247136723702      3.42687858140773     -3.38452194524281
  C          -1.08041855313049      2.96761861242439     -3.57442394286286
  C          -0.40483777487149      2.35153522551080     -2.53853322860284
  C          -1.05658310191986      0.93324551220317      0.93530951970607
  H          -2.81976721281786      2.50091511461581     -0.17590236599097
  H          -3.99451526824785      3.60318339436574     -2.00004880645527
  H          -2.90037266532278      3.91552161928599     -4.18979904570273
  H          -0.59259228147367      3.09552823185362     -4.52873714257954
  H           0.60382305408196      1.99315381495497     -2.68865051717584
  H          -0.41207951121102      0.44784116991502      1.66958977183110
  H          -1.73739671190322      0.18791592654744      0.52607114193615
  H          -1.63341304883903      1.70254268001565      1.43731584016151
