67
Coordinates from ORCA-job A3S E -89.655494646060
  Ru          1.85983967130761      3.52509871090197      0.14594068393858
  H           3.26456835244568      4.08117736643875     -0.00927505200843
  N           2.56293684259876      2.51617764798503      1.84512879791063
  C           2.71181016397523      3.13005271215774      3.02800364364313
  C           2.85273336719499      1.17331177036516      1.74022517138008
  C           2.98171701569083      2.44944426095412      4.19435339938826
  C           3.10506228990248      0.42931897234278      2.93346525833974
  C           3.14845907477818      1.05577643558712      4.13921576250636
  H           3.08288734349644      2.98069478761309      5.12714037954620
  H           3.27132029890350     -0.63352415330286      2.84148198648673
  H           3.33732050179374      0.50091636700772      5.04677805662847
  P           1.49490127465972      5.19709819451851      1.70111699332080
  C           2.08294076452415      6.96526239569532      1.35739873008838
  C          -0.17272487195376      5.25327095379754      2.62390685304221
  P           2.65943298780026      1.64353960301897     -0.88662282605245
  H           2.11379559354018      0.85718425482761     -1.89333026638166
  H           3.90622222906674      1.73454579251759     -1.53465979482099
  C           2.64404825499320      4.63329372832132      3.02499255189683
  H           3.63572751952635      4.99827751630334      2.73019560083664
  H           2.40130753943643      5.03601984284764      4.01120214658807
  C           2.85902466344516      0.57254898367108      0.48985969096046
  H           3.17330110426628     -0.45390039166115      0.36684233188012
  H           0.45204772446898      0.11708621526560      0.03824727559742
  C           1.27308030129010      4.42353677035651     -1.35117645229801
  O           0.93549559260906      5.00991807442014     -2.28759523294057
  H           0.30078680117251      2.57051722412765      0.25691855777429
  C           2.49688571030869      7.75387968160127      2.60061666375330
  C           3.30303241259251      6.84348295551966      0.44087006619881
  C           0.99105732769346      7.70518872387194      0.58438421434044
  H           3.32651490163318      7.27446687034396      3.11442233054510
  H           2.82880677964627      8.74427465479251      2.29015402841906
  H           1.68156082551556      7.88535769738002      3.30275027626965
  H           3.02814024419042      6.37000325309115     -0.50106816567681
  H           3.70336514003989      7.83378387318703      0.22853276587361
  H           4.09225441190010      6.25072954065289      0.90029489345947
  H           0.61570204737629      7.07646530432914     -0.22301441572631
  H           0.16375692926118      7.99464732050341      1.22722547293335
  H           1.40139697505429      8.61232376233720      0.14287901983651
  C          -0.28415493933343      3.89408145860054      3.32133454976271
  C          -0.35766321231650      6.34284793925288      3.67533670713607
  C          -1.27089909550151      5.35635752032821      1.56385957439201
  H           0.32764642102096      3.85374408820385      4.21966431502962
  H          -1.31634635061493      3.69672740620938      3.60967973235098
  H           0.03030396787977      3.08665092418342      2.65914028971744
  H          -0.42440512029102      7.33158525025804      3.23035960047278
  H          -1.29099624912973      6.15774850666684      4.20779372721493
  H           0.44737018937196      6.33226478604551      4.40708446087707
  H          -1.35609799473152      6.36599723669649      1.17205800237149
  H          -1.04705300178309      4.68727187659985      0.73072919546853
  H          -2.23492510086013      5.07243577881975      1.98500903968472
  C          -0.52453748201276      1.81780627087903     -0.06937096717326
  O           0.06999353012292      0.68722691442726     -0.64531117550883
  C          -1.31376782869602      1.45792497302363      1.17230983335487
  C          -2.63480365106097      1.84191718985526      1.36135849122595
  C          -3.31221108222143      1.47865693115614      2.51349122314731
  C          -2.68318097790760      0.73058382606594      3.49243994621044
  C          -1.36413960307702      0.34820290681441      3.31662185649157
  C          -0.68697539938435      0.70940194459902      2.16761794912121
  C          -1.33705938556292      2.46139015991583     -1.18882161154646
  H          -3.14836078579891      2.42473561803458      0.61401165594338
  H          -4.34019217771835      1.78388449861733      2.64369757329116
  H          -3.21525150679110      0.44978375295373      4.38891537169420
  H          -0.85649772960828     -0.22771745496704      4.07573306313923
  H           0.35243047232620      0.42221300150175      2.06474231284685
  H          -0.68363443182117      2.60141640074531     -2.04814613235128
  H          -1.74953251832886      3.42329279638219     -0.89887402386265
  H          -2.14040506231486      1.78758982444240     -1.47956595797951
