67
Coordinates from ORCA-job TSA2R_3R E -89.642027549030
  Ru          0.77140935241532      0.92019739424755     -0.80697530325977
  H           0.71835528109613      2.44977817129939     -0.82124707976915
  N           1.95344626499598      1.09783589104470      0.93190271264172
  C           1.41476173661684      1.43781933112946      2.10847637236230
  C           3.27880907527444      0.79924231841835      0.85499850442869
  C           2.14207307111180      1.41811361027152      3.28587201233928
  C           4.05308793372431      0.74440125558713      2.03289594982493
  C           3.48395097634792      1.04199964970662      3.24352957609152
  H           1.67482951735541      1.69860712015688      4.21638212833958
  H           5.09417446868697      0.47287481400214      1.95411629575192
  H           4.06652971406028      1.00602427613929      4.15181376200351
  P          -0.92977356029819      1.03278631521058      0.74336242829671
  C          -2.41369381785205      2.17828866664388      0.46223681275613
  C          -1.51804841162658     -0.56365989523961      1.60088783801337
  P           2.82641055090097      1.12570430051049     -1.79383160061296
  H           3.44855997208563      0.55007383870260     -2.88528818086925
  H           3.32716953791446      2.41236017849851     -2.05679151926572
  C          -0.01580241801364      1.89282006135097      2.10104578147632
  H          -0.02256718756019      2.95410583142537      1.82475861192214
  H          -0.48347954401596      1.78125436479580      3.08210499319162
  C           3.83460633998015      0.49620139353158     -0.42861368670632
  H           4.91425309990797      0.59143773569438     -0.51503633312519
  H           3.49788433790964     -0.75919378982590     -0.90469185116632
  C          -0.30478248055414      0.79966346519595     -2.29932235728985
  O          -1.02172722430026      0.76172557624500     -3.20134313491329
  H           1.11227294033542     -0.80872313423052     -0.77270705939251
  C          -3.01726175704413      2.76558090600263      1.73931110138903
  C          -1.92178446772934      3.33927521255786     -0.40545342163230
  C          -3.47047564915675      1.41543087103131     -0.33765444084006
  H          -2.29769332442112      3.38676750995961      2.26711706579988
  H          -3.86043657168262      3.39888359317341      1.46496996291566
  H          -3.38510446268444      2.00470482642234      2.41768795032620
  H          -1.56138803097187      2.97544411499158     -1.36632867646016
  H          -2.74123407705825      4.03443666367586     -0.58279950542896
  H          -1.11309339427998      3.88687965640307      0.07481777627880
  H          -3.00156822351287      0.88940480064320     -1.16951722194696
  H          -4.00927952208539      0.70066376927161      0.27881709786980
  H          -4.19830953877557      2.11425444602589     -0.74771188008733
  C          -0.27119172204483     -1.13618878455122      2.28391765466113
  C          -2.61214105708104     -0.43499859353159      2.65693796423018
  C          -1.96929847946009     -1.51945118473571      0.49323098680274
  H          -0.03930100569578     -0.60102177300898      3.20279033381686
  H          -0.43174767205318     -2.18261199470550      2.54264729167262
  H           0.59608603404875     -1.08081063503010      1.62608102558985
  H          -3.56744634193428     -0.15435126705560      2.22315617764509
  H          -2.74412691938592     -1.40309577085040      3.14095074777105
  H          -2.34160337832037      0.28408368432592      3.42757428414998
  H          -2.94892100987415     -1.25016633847458      0.10886152054629
  H          -1.26649130402233     -1.50102044537415     -0.34315994954673
  H          -2.02996990812275     -2.53923109422062      0.87279204076057
  C           1.65606768315369     -1.81188411418393     -1.23209117475098
  O           2.87036164546885     -1.50480437505562     -1.72452227279820
  C           0.72821840379668     -2.26226873586696     -2.34883029587822
  C          -0.22365583273124     -3.26278195400198     -2.19949437898907
  C          -1.03387344848141     -3.62177288377003     -3.26363659811151
  C          -0.90177141492623     -2.99549169043823     -4.48947758853654
  C           0.05321941706916     -2.00599548572962     -4.65040361967010
  C           0.85829146509207     -1.64398973715707     -3.58842284353284
  C           1.75751684226295     -2.80734729831138     -0.07108445965795
  H          -0.34572448914140     -3.77821084288929     -1.25942805217717
  H          -1.77244143378215     -4.39942678433737     -3.12986209058695
  H          -1.53767025629076     -3.27839763212019     -5.31547281595809
  H           0.16774498110057     -1.51069722734560     -5.60311370518834
  H           1.60855073722860     -0.87431050553911     -3.71244816576791
  H           2.44618566806072     -2.42174718268235      0.68091644511620
  H           2.17153828227695     -3.73467393648958     -0.46400116267257
  H           0.79851400669269     -3.01080052753967      0.39380121980762
