67
Coordinates from ORCA-job TSA2S_3S E -89.642505721510
  Ru          0.57935511937410      0.92837133976274     -1.52220040982159
  H           0.59038855846259      2.45249018781950     -1.66884175226364
  N           1.81516085977182      1.20849391254911      0.15782814105049
  C           1.33206000047501      1.67382824310644      1.31403101659580
  C           3.11992896412488      0.84327863156024      0.06644614160813
  C           2.10049316382016      1.72580265136355      2.46512753996463
  C           3.93517840516393      0.86148939199238      1.21487465965831
  C           3.42244074156389      1.29063888069239      2.41279317175864
  H           1.67846030434680      2.10661808983990      3.38147081667730
  H           4.96090087831210      0.53863809568996      1.12769473754101
  H           4.03639488374329      1.30921418607347      3.30061948115798
  P          -1.07021505975486      1.25339090382690      0.05971287680243
  C          -2.50697517025979      2.44104434195871     -0.29026233837986
  C          -1.70860101108698     -0.22115658372307      1.08247034977309
  P           2.59252147175967      0.91649387835773     -2.59427095200813
  H           3.04406556869805      0.07178680201912     -3.59642930757208
  H           3.20902140373025      2.05814914906943     -3.12341569544492
  C          -0.07645002004011      2.19174994983165      1.30625050067018
  H          -0.04636018308366      3.22307240528019      0.93410120980153
  H          -0.51662056446799      2.19029663785806      2.30606138441956
  C           3.61293089589341      0.38714007490354     -1.20297099286211
  H           4.69254337789080      0.41214448295665     -1.33135049402041
  H           3.22856966550854     -0.89814081938440     -1.46498099880136
  C          -0.52449675871821      0.71144563542420     -2.98222705868699
  O          -1.23181595002238      0.59687051150339     -3.88647324124468
  H           0.87765307194541     -0.81536148226375     -1.37873902699750
  C          -3.03935152999557      3.17602676424917      0.94103027434645
  C          -1.99419415098853      3.48857794626710     -1.28114190084188
  C          -3.62413444836001      1.65745380998205     -0.98042902684966
  H          -2.27756948019242      3.81672157966823      1.37850143151469
  H          -3.86843381387887      3.81274499604486      0.63362471315081
  H          -3.40824971128206      2.50164656802304      1.70483087494709
  H          -1.68263402241844      3.01726379873837     -2.21195049025138
  H          -2.78785704951481      4.20115524417962     -1.50136837475162
  H          -1.14648902971691      4.04105375089386     -0.88054469381137
  H          -3.20694000276368      1.03189652853474     -1.76988938952868
  H          -4.17357726516167      1.03278373599379     -0.28117555353743
  H          -4.33261363837100      2.34783087079571     -1.43610927174930
  C          -0.46561810374662     -0.80077846775272      1.76406577980632
  C          -2.74903909073868      0.06411195033569      2.16130827654103
  C          -2.25113545219243     -1.24926720183288      0.08819840067670
  H          -0.15115886073230     -0.19297063611413      2.61016059738880
  H          -0.67135976719019     -1.80518255207513      2.13191140272179
  H           0.36647921015083     -0.87902825113970      1.06374117650693
  H          -3.70691022070287      0.35473547298778      1.73950724953509
  H          -2.90743052397099     -0.84756312437502      2.73771031515964
  H          -2.41070904413585      0.83478445004207      2.85099817352866
  H          -3.23460364289495     -0.97211943958516     -0.28070523363890
  H          -1.57624708308182     -1.33343968404149     -0.76570232087348
  H          -2.32825628212777     -2.22739946919046      0.56071074540600
  C           1.33168534181540     -1.92766659048880     -1.71375674494177
  O           2.61768378548133     -1.83134250828037     -2.07773955915539
  C           1.13992724309936     -2.79470522560354     -0.48006969663656
  C           0.09547286416529     -3.70193192727118     -0.34955563567499
  C          -0.01104743042942     -4.49364870565746      0.78127973101206
  C           0.92036625936510     -4.39367305359822      1.79936785326782
  C           1.96894519780700     -3.49810899977670      1.67609201204609
  C           2.07693575666582     -2.70910444177901      0.54693213901202
  C           0.48033147947302     -2.35482483515596     -2.91583298210228
  H          -0.64065395750379     -3.80879849056387     -1.13017873382934
  H          -0.82874463826534     -5.19577129918908      0.86410241633961
  H           0.83485330037756     -5.01487952110225      2.67903701879706
  H           2.70609838931107     -3.41317467401965      2.46135079902089
  H           2.90463203960595     -2.01975053636667      0.45722065804477
  H           0.74450313899334     -1.72102283977317     -3.76203909137410
  H          -0.58736482547452     -2.26666629379058     -2.73023001344338
  H           0.72787644236975     -3.38375819628090     -3.17058308515461
