20
Coordinates from ORCA-job NEB E -49.519337170600
  C           1.07236143110648      0.56603887521644     -0.21566344001051
  C           0.40309127307738      1.77977118129028     -0.06069037978780
  C           1.05268990397133     -0.03088145750660     -1.61350222098370
  H           2.04326583329007      0.45017108840048      0.25714255140453
  I           0.98184171464943      3.00826372684562      1.60114384857198
  C          -0.18369525560221     -0.54163051197734      0.81440077981885
  C          -1.41906161643864     -0.25894500045017      0.23440501769192
  C          -1.87998272464876      1.09452423756419      0.27554920904417
  O          -0.77945571902427      1.94606840365593     -0.51331458563825
  C           0.29701290660704     -1.97415751942826      0.77698509138234
  H           0.05789672284057     -0.09432584558302      1.77564639489316
  H          -1.79548627392751     -0.91228927817067     -0.53889767363548
  H          -1.86250079308557      1.57850564031641      1.25160264265078
  H          -2.78918187355879      1.30815755312393     -0.27377819716106
  F           1.61762623810252      0.85010405461903     -2.47641730472249
  F           1.81183992463813     -1.13959852024080     -1.67005710325403
  H           0.04778597243192     -0.26682073052319     -1.99455171423831
  F          -0.00984678832877     -2.60501745807317     -0.35985739158266
  F           1.61528524373738     -2.08147734867225      0.96168403346779
  F          -0.28148611983773     -2.67646109040684      1.76817044208875
