20
Coordinates from ORCA-job NEB_reactant E -49.545447676010
  C           1.69820931166436     -0.02153497931354     -0.08501264420832
  C           1.16291867384924     -0.33068194384271      1.09690237851290
  C           2.08412941690295     -1.09550074893417     -1.05809989854641
  H           1.89016252979682      0.99710244648750     -0.36573611268162
  I           0.60424799843688      1.26361930762974      2.39886870565732
  C          -0.27939078424126     -4.12057030366655      3.61984110001026
  C           0.00851229918143     -3.43485399490444      2.52672430798156
  C           0.05435726951426     -1.94307825261605      2.46989731431843
  O           1.02534806397371     -1.57758121733616      1.50990591928792
  C          -0.36039980794283     -5.61493353975917      3.64365124100486
  H          -0.49247079847842     -3.66142546694485      4.57373916672413
  H           0.22484447399524     -3.93057283113650      1.59006471474559
  H           0.30469798635108     -1.51759026898992      3.45063417624850
  H          -0.93532206403544     -1.56796285250858      2.16747561658237
  F           3.12734780958501     -1.83717450547111     -0.60286859173670
  F           1.06821882362895     -1.97575013784817     -1.25597369521025
  H           2.36902888620958     -0.68777600590973     -2.03917389952575
  F          -0.08804266472080     -6.18524628558361      2.46594793820181
  F           0.49101568603812     -6.14446863916321      4.53818999830135
  F          -1.58721310970888     -6.03691978018877      4.00152226433206
