20
Coordinates from ORCA-job NEB_product E -49.564327733750
  C           1.56747481361365     -1.87593959615188      1.47672977428724
  C           0.99047986672251     -0.48565207085270      1.36342162755419
  C           1.64912517735937     -2.47997350619644      0.06406099880021
  H           2.58973707185975     -1.83586387389335      1.87145328429266
  I           1.50988400473491      0.76216099461038      3.04506684086581
  C           0.66768314668905     -2.64965734915426      2.47043111056727
  C          -0.79181548655031     -2.59593083168624      2.09630770364316
  C          -1.69383659130029     -1.95212502666253      2.81166191872997
  O           0.28764576176308     -0.07156748030214      0.51375872047186
  C           1.09645296003085     -4.11178202182872      2.63560282952476
  H           0.80352849329089     -2.19554821455463      3.46075504302533
  H          -1.07026160190437     -3.13448902520223      1.20202366107454
  H          -1.43868545654627     -1.42052909853912      3.71399330184775
  H          -2.72866276797657     -1.93218356749290      2.52024975151480
  F           2.28295883267798     -1.60507101395205     -0.74900666841518
  F           2.40752886274145     -3.59169142448205      0.06966085620458
  H           0.67419543608369     -2.71696882354572     -0.38491815750030
  F           0.74424023821061     -4.88504702873361      1.60569693738927
  F           2.41523034103772     -4.24018077025878      2.80864679543605
  F           0.51299689746230     -4.63756027112101      3.72210367068602
