20
Coordinates from ORCA-job NEB_reactant E -41.291484289570
  C           1.45475943218995     -1.23671208079271     -0.05755521465292
  C           2.35360274959840     -1.14561443814567      0.93054790740515
  C           1.58279874065561     -0.56751682662150     -1.37019865299807
  H           0.58026937205031     -1.85154454711703      0.06982471901886
  Cl          3.78729357887339     -0.21132106814727      0.78262688644936
  C           0.02588429074496     -4.27801179385636      1.12776522478623
  C           1.12219619941608     -3.79845315228730      1.69224827666705
  C           1.18431845920860     -2.52584501718136      2.48156631081867
  O           2.30567971502983     -1.71164463996026      2.13375879446949
  C          -0.04229519050187     -5.54896531697482      0.35568088548732
  H          -0.90924057277311     -3.73833864099286      1.22057164425152
  H           2.06323191757256     -4.32478666600820      1.61345034695813
  H           1.35513452743154     -2.74490604656844      3.54057603057550
  H           0.25793087001218     -1.94861980225966      2.38001746343611
  Cl          3.04847367322097     -1.09978341434099     -2.25293083017529
  Cl          0.17746045657432     -0.95829929356616     -2.37754721717578
  Cl          1.66330699141546      1.21490094392525     -1.21439912876125
  H           0.92274040870967     -6.04747845874234      0.33476986241103
  H          -0.35624713600900     -5.34432401493651     -0.66734471038793
  H          -0.77929848341986     -6.21793572542585      0.79767140141683
