20
Coordinates from ORCA-job NEB_product E -41.300654548640
  C           1.78823643957426     -1.96520079751273      0.68334005622863
  C           3.21234338888888     -2.41705169083384      0.93169075741421
  C           1.53311550162850     -1.37743994656710     -0.70411376672097
  H           1.62875216000895     -1.13040724511153      1.37861967019472
  Cl          4.01467807553394     -3.18123423753710     -0.42358675467176
  C           0.83981594899542     -3.11611346329697      1.16746863374237
  C          -0.59425345661047     -2.84933092138044      0.81014157951250
  C          -1.49565381025484     -2.42473159705711      1.67513842697275
  O           3.76755790444737     -2.32349485914691      1.97554086818471
  C           1.24089021457867     -4.50945115462013      0.68204103338973
  H           0.93096922196470     -3.10461435368202      2.25918318832349
  H          -0.87074774566961     -3.07475642941289     -0.20951749229065
  H          -1.24251537329039     -2.20556195507047      2.69971034557456
  H          -2.52367357563801     -2.27390140558521      1.39568813411663
  Cl          1.33712932597367     -2.54922499252804     -2.00635800121233
  Cl          0.06749983894863     -0.35858094839471     -0.65889894451874
  Cl          2.89346091186065     -0.28544144465276     -1.12661063910203
  H           2.20686350053373     -4.80091157274525      1.08571231739212
  H           1.27984095343232     -4.56559197694078     -0.40056964775972
  H           0.49939057509363     -5.22335900792403      1.03458023522978
