21
Coordinates from ORCA-job NEB_reactant E -32.756956299750
  C           1.73465928190121     -0.19648740717915     -0.01745649955946
  C           1.85195360781619      0.23985714267314      1.23476685905651
  O           1.15127163088171     -1.39653102622799     -0.31093131983175
  H           2.11207143081673      0.40243695673313     -0.83361005004091
  Br          2.77516402856040      1.90538366712998      1.48238685091246
  C           4.45155971893817     -1.71975469263640      1.95769973023320
  C           3.55788912390931     -1.39432858606774      2.87797372499770
  C           2.08432646311342     -1.58813879615132      2.69779117727682
  O           1.44920333504125     -0.33645767243391      2.37359801733305
  C           5.91295859238604     -1.42720165390123      2.04879546590103
  H           4.13105194945339     -2.21563308763743      1.04876398938699
  H           3.85799463210296     -0.87769125727000      3.77943075946045
  H           1.59740975602355     -1.89807542783519      3.62407833477700
  H           1.87258220640453     -2.31246312780968      1.90403933893962
  H           1.00513401794076     -1.46827168751270     -1.25907707513244
  C           6.32515498047253     -0.43502920486028      0.95972086341269
  H           6.47697972950771     -2.35527952870379      1.92179455262840
  H           6.14866125166079     -1.01265734707486      3.02995974330274
  H           6.10845771917400     -0.83875540688156     -0.02712762214413
  H           7.39042541371577     -0.22735566082634      1.02091358084444
  H           5.78279113017959      0.50033380447332      1.07728957824559
