21
Coordinates from ORCA-job NEB_product E -32.776978957080
  C           2.90444808638641     -0.45075093653592      0.54437738410858
  C           2.39948801441367      0.72770950900195      1.33552075403775
  O           1.81284997741699     -1.18466884680702      0.07271243456916
  H           3.44857408904132     -0.11080002524683     -0.34002460951299
  Br          3.53331961409326      2.32432412875698      1.16901373301573
  C           3.83274950497308     -1.34882710859159      1.42276500082816
  C           3.10296149320780     -1.71317180669969      2.68409565495203
  C           2.37637606825215     -2.80753749390467      2.82409761634023
  O           1.43224348007730      0.78222566178743      2.01079360164190
  C           5.20160773679618     -0.73878079181160      1.73732446958187
  H           3.97876889065144     -2.25247056736748      0.81942087980946
  H           3.17800182164140     -0.99850947124565      3.49330012738633
  H           1.84963888133126     -3.02727425135585      3.73671989455265
  H           2.29144529147436     -3.53904360245305      2.03585441155383
  H           1.32034147427055     -1.53892758334619      0.82691867661481
  C           6.04307312816588     -0.44839521762423      0.50020265022978
  H           5.73210271025222     -1.46050555176496      2.36373710269199
  H           5.08551372960449      0.17404971954804      2.32348654358167
  H           6.09386043257832     -1.32333317909191     -0.14400870122626
  H           7.05392246363544     -0.18408576604930      0.79903515442924
  H           5.63961311173651      0.38437318080153     -0.06934277918591
