22
Coordinates from ORCA-job R E -31.270513131710
  C          -1.28858463099885      0.14698323507890     -2.78792088165242
  C          -0.07153944755410     -2.41484183053577     -1.72795592685078
  C          -1.35714013524410     -2.07656304818167     -1.70012586356308
  C          -1.95418624833953     -0.89809197279467     -2.29003853927016
  C          -0.87067083182999      1.43070178145782      0.14333051929962
  C          -0.13061847796635      0.43684716321093      0.61791309623587
  H          -2.06068152013956     -2.73620926161475     -1.20590442142384
  H          -3.03896443171594     -0.88074573570038     -2.31597637495901
  O          -1.86389098552993      1.23906312868121     -3.33641614361638
  H           0.27687662208138     -3.32111444831521     -1.26239799834447
  H          -0.21296808463036      0.22917518206853     -2.77833492196610
  H           0.67174030097892     -1.81336616417063     -2.21947582928908
  H          -1.81954790638723      1.70251308412992      0.57429765408101
  H          -0.44594638148530     -0.15133390763615      1.46776469356230
  H          -0.52746831364623      2.00829737755252     -0.69934442140112
  C           1.17299972645030      0.08309072932659      0.01423158730891
  H          -2.82550339167123      1.13889338515187     -3.33829329654549
  O           1.57793582920375      0.58167217514828     -1.01103500562283
  C           1.95728532743309     -0.94561121708908      0.78814285266338
  H           1.36879689592151     -1.85661989586057      0.87367686666880
  H           2.15542673705856     -0.57333195483853      1.79171942339989
  H           2.89678934801121     -1.16137780506919      0.28701293128499
