22
Coordinates from ORCA-job TS E -31.261311452660
  C          -1.10889241992473      0.77948073884982     -1.65736730602072
  C           0.12768918095885     -1.55175658788870     -0.48326915208000
  C          -1.20337094706339     -1.46393428439013     -0.71351268235187
  C          -1.80993012419038     -0.34769858927952     -1.32351078060950
  C          -0.54232467498158      1.34617347531906      0.38600696957050
  C           0.19331973584631      0.35807259514467      0.97878516924260
  H          -1.86437732736500     -2.20358568111137     -0.28146021974283
  H          -2.89294265838753     -0.30681356583270     -1.34462897669293
  O          -1.69223833409915      1.88667927035941     -2.16750338642970
  H           0.52470829082957     -2.38168346615139      0.07760869049571
  H          -0.05469780720544      0.75716629845769     -1.88612396985406
  H           0.84296183571299     -0.98783580680708     -1.05096365775822
  H          -1.55588448488752      1.53155590463419      0.70130021296605
  H          -0.24873708034017     -0.29093125775092      1.71838332746577
  H          -0.01985344018652      2.16753908637244     -0.07512459126868
  C           1.65436882553567      0.35319866189676      0.85064610160785
  H          -2.65169490754743      1.84144449442650     -2.05824210649520
  O           2.24267415288253      0.99173914744764      0.00159091032202
  C           2.38469772349761     -0.47411825706495      1.88501930653976
  H           1.97940480739929     -1.48132543360739      1.92766670742879
  H           2.24957283255532     -0.01258557866662      2.86196121914282
  H           3.44554682096072     -0.51078116435741      1.65273821452184
