22
Coordinates from ORCA-job NEB E -54.669338393390
  C           0.38414092834573      0.42007758919701     -0.85881192369141
  C          -1.00391212136604      0.68652801803923     -0.66222075779282
  N           0.66219671042726     -0.31207191104053     -2.11323972029507
  H           1.02884299373025      1.29870433986789     -0.83947450030462
  C          -1.42975046011172      2.05451466720293     -0.12645233722643
  C           0.84431421312100     -0.79605210117357      0.44592578124816
  C          -0.33470295405326     -1.19071740039535      1.12206545468176
  C          -1.39738935723791     -1.60839849279633      0.26702348272250
  O          -1.83815576463927     -0.27509406826269     -0.50384683158711
  C           1.94982789931453     -0.19483784437832      1.27616057819164
  H           1.22913301394520     -1.57457935714633     -0.21778457133981
  H          -0.60019730628962     -0.68482391903157      2.04269840246379
  H          -2.32755508859803     -1.88694240733050      0.74852489304118
  H          -1.12125162388246     -2.27753255508182     -0.54485995234994
  O           1.26409488934479      0.32361042021675     -2.93763843715407
  O           0.24481690231648     -1.43552599939310     -2.23500187985772
  F          -2.41071646156674      2.57737835885636     -0.88981817273488
  F          -1.93886144631735      1.90777695671320      1.11887405461884
  H          -0.60491418598156      2.78197135855624     -0.08162608069704
  Br          2.51977539587786     -1.48679238310223      2.63707643385822
  Br          3.51373773002645      0.23453352205466      0.16995292307115
  Br          1.36652609359440      1.43827320842808      2.18247316113367
