22
Coordinates from ORCA-job NEB_reactant E -54.711966837700
  C           1.42487080161958     -0.12302322243639      0.04668609150007
  C           1.34395346820218      0.12568898226107      1.37000611309246
  N           2.09542770824715     -1.18871068496555     -0.61594171506994
  H           0.93996485528627      0.54630194160842     -0.64721994072275
  C           0.42954784246862      1.26865078037815      1.82258932874228
  C           4.24227320646447     -2.49713363996151      4.12633552546209
  C           3.62320576469482     -1.40140814917152      3.71663035166946
  C           3.08320091744277     -1.24152884099327      2.33305220365295
  O           1.95500854989352     -0.38389528925123      2.42164973784324
  C           4.83619726540456     -2.71355659460616      5.46285077606344
  H           4.37102187450421     -3.34261305053620      3.46046533417911
  H           3.47315558421321     -0.54734075217300      4.36285738515592
  H           2.81220568765566     -2.20742990011665      1.88855193612025
  H           3.84382268072954     -0.77280188662048      1.69032284574301
  O           2.49946688658102     -0.96267883545853     -1.73450331118808
  O           2.18118734528132     -2.26338576131290     -0.05007591126513
  F          -0.45437093270534      0.81929260209029      2.73318744590447
  F           1.16405462486059      2.22717625358980      2.42599057086738
  H          -0.12875761355926      1.72964174531200      0.99493017005938
  Br          4.03341895493983     -4.32069073532303      6.27640635810221
  Br          6.77359268758694     -3.04322707652885      5.25942501387538
  Br          4.61325184018835     -1.24172788578444      6.70400369021279
