19
Coordinates from ORCA-job NEB E -38.042226011900
  C           1.12449414870600     -0.18392847932619     -0.56226001841685
  C           0.52354010203063      0.55840114694133     -1.56038703567165
  C           0.78648377532884     -1.63843569185309     -0.50814486466836
  H           2.12586905719322      0.07372821499875     -0.24739214273176
  F           1.13634716912647      1.76505772512278     -1.82320715343203
  C          -0.10815427609261      0.69521781310844      1.06850541117046
  C          -1.33287924609770      0.30108385618720      0.51641737030614
  C          -1.83239153921802      0.92650242317466     -0.60841678277415
  O          -0.62622960300967      0.41002773383693     -1.99041768751676
  N           0.35604682606194      0.19036161727408      2.23318186867642
  H           0.26467748847485      1.68510922094622      0.83356480479112
  H          -1.73964407951922     -0.65162573021942      0.82448351139272
  H          -1.61899282356468      1.97045853012435     -0.77901157641232
  H          -2.73858610074843      0.56248938953862     -1.06258532518679
  F           1.74634437519137     -2.37516404781970     -1.13124638854878
  F           0.75462807493967     -2.12736855393983      0.76476820425148
  H          -0.17789690776201     -1.86648720744644     -0.98286066310234
  H           0.07581857288911     -0.74621115988909      2.48135014184936
  H           1.28052498607023      0.45078319924041      2.53365832602411
