19
Coordinates from ORCA-job NEB_reactant E -38.062886161470
  C           1.73478335578400     -0.01108577196158      0.02877619772903
  C           0.99674477598279      0.91597702573963      0.64656043076230
  C           2.15626334094796     -1.26352731589944      0.71734596830071
  H           2.03813191688773      0.14513270203628     -0.98896560117507
  F           0.65413015868541      2.02699815193275     -0.03736301993554
  C          -0.05449953196124      2.16930654722191      4.86852355361399
  C          -0.60608444457845      1.59015478610492      3.80228138617803
  C          -0.22944609812690      1.93916683014753      2.40528972629976
  O           0.56185331178050      0.85380032438677      1.88025465357075
  N          -0.41880461358017      1.93050297073889      6.17077970291258
  H           0.67626119571394      2.95839770959789      4.74854750054133
  H          -1.32503935507928      0.79394928739719      3.91782513624256
  H           0.36325312141476      2.86015854826050      2.37563937647889
  H          -1.11565419027728      2.06285823560010      1.77079564215240
  F           2.91321746931383     -1.01187590273965      1.82157495081148
  F           1.09351910014893     -1.98405751507049      1.16952626333296
  H           2.74423882202292     -1.92337841566216      0.06191124857543
  H          -0.94392303244988      1.08367146148050      6.32615608523449
  H           0.27275469737043      2.12365034068847      6.87594079837394
