20
Coordinates from ORCA-job NEB_reactant E -43.620139469210
  C           1.58646053935532     -0.88399056418510     -0.27752197061551
  C           2.33568447113614     -1.20260110696693      0.78509504393024
  C           2.04110870756881     -0.08317443933816     -1.42833670218618
  H           0.56147096901962     -1.22213877424527     -0.32108652789713
  Br          4.14202195113486     -0.66824415298950      0.96984795193925
  C           0.28461373106121     -4.89135048448021      1.68315883954286
  C           0.53062360747316     -3.69744765096272      1.17016228059622
  C           0.69525185270466     -2.45998880280774      1.99840289093616
  O           1.99899967731673     -1.89409811861353      1.86901112187499
  C           0.11607046705294     -6.13447328067043      0.87312381107497
  H           0.17574175673062     -5.03847377594899      2.74844966327141
  H           0.64469658269342     -3.58645675530446      0.10106382469554
  H           0.61277563058200     -2.69708521576496      3.06136710965275
  H          -0.06247961187291     -1.70865770734814      1.74044364717047
  Br          0.58774369694935      0.11951993884650     -2.71310485349025
  Br          2.60737747615132      1.74251336613643     -0.91237850966888
  Br          3.55061661585879     -0.92066850365996     -2.39268024143843
  F           0.22941041845069     -5.89124661640201     -0.46919766588076
  H          -0.87579649306171     -6.57445730265502      1.03617093906455
  H           0.88530795369500     -6.87318005263979      1.13130934742774
