20
Coordinates from ORCA-job NEB_product E -43.630007145820
  C           1.79862903442956     -2.09043660194567      0.65575500761269
  C           3.20676792241514     -2.30801222402866      1.14647184694683
  C           1.82175247129872     -1.45488715748185     -0.73052339240491
  H           1.30863070327957     -1.36516880172746      1.31891976275097
  Br          3.31361672250229     -2.14880532303530      3.10131353650046
  C           1.02280678638551     -3.43013462816109      0.87289026670625
  C          -0.46666728175579     -3.18743363210528      0.95425858342596
  C          -1.04424164177000     -2.60928827240684      1.99015710339733
  O           4.17245757402205     -2.60037933049174      0.53747325244445
  C           1.34383639486016     -4.54287998440804     -0.12394669231917
  H           1.35479948479273     -3.79031484267037      1.85547972345669
  H          -1.04730877992783     -3.52138450351776      0.10776718827790
  H          -0.48364797585126     -2.27232831198475      2.84815830615182
  H          -2.10691165537006     -2.45061411112659      2.02128660526729
  Br          0.02352765755583     -1.13631938789607     -1.39611797590721
  Br          2.66743051808637      0.32828823067199     -0.50833938906506
  Br          2.83557916199743     -2.37348488924903     -2.09864497601937
  F           0.73807154532295     -4.31614494622209     -1.33053626007597
  H           0.94560638589426     -5.49166506672757      0.24965927876336
  H           2.41816497183236     -4.64230621548583     -0.31148177591030
