23
Coordinates from ORCA-job NEB E -48.041915930650
  C           0.37727133822979      0.69680059940531     -0.67805590692419
  C           1.01685600417011      1.36464487197431      0.37580016090955
  C           1.11029435922365      0.13276453645158     -1.87006720951508
  H          -0.57135791559169      1.13100014986506     -0.97668603442227
  N           2.45363573325178      1.02443265999741      0.67783091029677
  C          -0.35389638320871     -0.88410538424666      0.29892969540881
  C          -1.08868049735783     -0.21870912831738      1.30121922389106
  C          -0.41187746025187      0.47131443460115      2.29350904084414
  O           0.37535007747328      1.83867364622834      1.34379491535545
  O          -0.89825321468468     -1.64124340998049     -0.67641392504692
  H           0.60941865021519     -1.30587925885092      0.57923094529671
  H          -2.12088755461067      0.03487909115309      1.11058366584914
  H           0.52719983678368      0.08067937664056      2.65960229850756
  H          -0.97696489694149      1.05336955964818      3.00374343135390
  F           1.03043134533245      0.99841975294784     -2.91372333133939
  F           2.42490535868723     -0.06183033340807     -1.63523534353754
  H           0.68070765860273     -0.82693232172890     -2.20488700184718
  O           2.59346968998774     -0.03462189638142      1.25209657065051
  O           3.30789005964579      1.82163009121338      0.41247243205476
  C          -2.26080669223091     -1.44360569320105     -1.01177001266647
  H          -2.91350624168838     -1.74823598356262     -0.19005492035144
  H          -2.44587718994036     -2.08022195033007     -1.87453121951805
  H          -2.46532206509683     -0.40322341011864     -1.27738838524983
