18
Coordinates from ORCA-job NEB E -34.246731966180
  C           0.66212121808721     -0.97880483488366      0.58019870508660
  C          -0.69194416984492     -0.67313536483681      0.77620101616263
  Cl          1.80084086962876     -0.63732365771797      1.85098560045370
  H           0.91717461013187     -1.89794336097295      0.06494416789076
  C          -1.72076258677919     -1.37498944048402     -0.09932669443475
  C           1.09240922058826      0.45009225973593     -0.74763558087111
  C           0.73258516453834      1.58425050865536     -0.00335974244166
  C          -0.60164011491434      1.80546686430563      0.32796327368460
  O          -1.04286070383941      0.40634459135541      1.35320952238644
  O           2.41129500582546      0.27532864286192     -1.01617817686929
  H           0.40745055160953      0.09808866851067     -1.51749886263461
  H           1.51278449970184      2.03102351464905      0.59374138901730
  H          -1.36245561929934      1.61705281787396     -0.41865507629240
  H          -0.83243240779298      2.61434130356147      1.00318863238884
  F          -1.13469122661339     -2.16638403350766     -1.05574131001329
  H          -2.34338994382067     -0.63843016499712     -0.62072638322787
  H          -2.36056257718491     -2.02285213434729      0.50954192486550
  H           2.55407820997791     -0.49212617976192     -1.58085240515139
