18
Coordinates from ORCA-job NEB_reactant E -34.287304495930
  C           2.36362116732826      0.19594599330247     -1.02152920765791
  C           1.34018825812639      0.69085194984470     -1.71239854178807
  Cl          3.63992170741893      1.05310923318423     -0.23964311931368
  H           2.45628962410606     -0.87090405367810     -0.90676928157008
  C           0.31884164186723     -0.25126410104976     -2.31759114995111
  C           3.30936443245695      2.47126440882722     -3.55122069951043
  C           3.07960335172562      3.12175184294322     -2.42007342528799
  C           1.78219856971761      3.06066730865401     -1.66811738579988
  O           0.96196856990778      1.95678504440714     -2.01563777544322
  O           4.46065121032460      2.48947649501722     -4.25793887131775
  H           2.56858428507399      1.84276149388182     -4.02339187477494
  H           3.84109576861675      3.74535189030647     -1.97289272974117
  H           1.16029998900451      3.93023634817579     -1.91427006687750
  H           1.97159107480038      3.07421470994535     -0.58927986856852
  F           0.53922548129145     -1.55356555619073     -1.97666751604188
  H           0.35154527335328     -0.18996287170989     -3.41131892433236
  H          -0.68393516330094      0.01699293477119     -1.96764531889640
  H           5.11314475818113      3.04318692936764     -3.81011424312710
