18
Coordinates from ORCA-job NEB_product E -34.279937339040
  C           1.92587661115131      0.94338022703807     -1.64428006841371
  C           0.69677400957905      0.32596229065623     -2.30742163042456
  Cl          1.51711020935326      1.44267022467946      0.01013867656128
  H           2.75502777643635      0.23553969396215     -1.59139814671259
  C           1.05857437052153     -0.84187103246687     -3.20446393414503
  C           2.35730048983802      2.17697983802310     -2.46364038153736
  C           3.50708769397741      2.87575781995213     -1.79449462785843
  C           3.42866695168939      4.08614859849197     -1.27682565340664
  O          -0.40913766267967      0.75534704592565     -2.16464655419763
  O           2.72004966523832      1.67765531208347     -3.73848648425274
  H           1.49523284634957      2.85632477517063     -2.54551443617014
  H           4.42708456864027      2.30798754669513     -1.77499378562596
  H           2.51107384359923      4.65072361582338     -1.29221994300896
  H           4.27346371136542      4.55517530974643     -0.80344389899293
  F          -0.03025225306775     -1.32780274684508     -3.86537009048024
  H           1.47616547020403     -1.66267859965579     -2.60982770882801
  H           1.78806864554896     -0.50346605506866     -3.95003755211074
  H           3.05573305225531      2.40886613578859     -4.26907378039560
