19
Coordinates from ORCA-job NEB_reactant E -40.791128105870
  C           1.80770734914555     -0.19601000995166     -0.05386061100357
  C           1.76800921586961     -1.51534301640782     -0.26617613604412
  O           2.24570815813248      0.71619492786872     -0.97126018430310
  H           1.48252391873227      0.19601863462093      0.89857088310877
  C           1.32813264059265     -2.49544743739202      0.76348765187594
  C           3.79053946476161     -2.85552875862071     -4.20327762978409
  C           2.62025567369062     -2.62526015479547     -3.62303554534044
  C           2.41368158208150     -1.56783917198474     -2.59070001901975
  O           2.11770462448694     -2.23744837047213     -1.36602938307409
  O           4.04238507855388     -3.79647287370797     -5.13260280600851
  H           4.67158330875673     -2.26650837052291     -3.99084306933411
  H           1.75989076794565     -3.24120079607208     -3.84682368717843
  H           1.56854651540743     -0.92209644243046     -2.85767567339581
  H           3.31121716640172     -0.95440687789239     -2.47309165385249
  H           2.14240228396095      1.60618511219266     -0.62095120691424
  Br          0.63697945042614     -1.74945296267207      2.39740776217762
  Br         -0.05926370222953     -3.63607231874023     -0.00810385175970
  Br          2.84635993577580     -3.65756230591280      1.22521444154540
  H           3.25053656750800     -4.32674880710686     -5.29274928169526
