23
Coordinates from ORCA-job NEB E -32.473123028880
  C           0.91614500240696     -0.65628626698692     -0.24791775552898
  C          -0.46081922258029     -0.84933527606894     -0.06913745193938
  F           1.77804006450145     -1.26345379543255      0.60733507477418
  H           1.33210776073129     -0.68643960596591     -1.25246686852699
  C          -1.39925703844171     -0.59021812966656     -1.22269711293469
  C           1.08213293527610      1.14963665355877      0.34859553793179
  C           0.59061684699097      1.03303048580157      1.65380515595978
  C          -0.76942486892286      0.65249041169399      1.82627320379700
  O          -0.93068065342046     -0.81176838650179      1.14805289180645
  C           2.53249928702852      1.49836538348529      0.13440524369573
  H           0.41859230285206      1.61001233445247     -0.38052294737392
  H           1.29058180458803      0.78267507732187      2.43768970150928
  H          -1.50219297213724      1.21827608470503      1.25338601094024
  H          -1.09514421817773      0.46641248852844      2.84226039175290
  C          -2.23738225810243     -1.83610070165017     -1.51497977733541
  H          -0.83271857588736     -0.30557218470933     -2.11057624228345
  H          -2.07207100706767      0.23069170600663     -0.95456571344167
  H          -1.59550577876997     -2.66024880175170     -1.81644883127793
  H          -2.94949324846436     -1.63733615383375     -2.31232840901463
  H          -2.78168183850362     -2.13247647600642     -0.62215274009906
  H           2.82398465867567      1.34772663311669     -0.90238281591964
  H           3.17098523140148      0.89279717194631      0.77242514963775
  H           2.69068578602317      2.54712134795697      0.38194830387065
