23
Coordinates from ORCA-job NEB_product E -32.515206529920
  C           2.21193722090167      2.15755699482556     -0.26155447116820
  C           0.94084406829149      2.33676336888771     -1.11119493446655
  F           1.95741033361505      1.15970678692085      0.66138715476067
  H           3.05497089021926      1.79961828490453     -0.86588747820223
  C           1.10455204378262      1.96605945828173     -2.56418824307068
  C           2.56283895361302      3.46052994648060      0.47367654229320
  C           3.76256878292901      3.24115941174721      1.34702601626302
  C           3.74035120144445      3.29490107584016      2.66438672791172
  O          -0.08421462539638      2.73016737690389     -0.62577947917741
  C           2.83006620588547      4.57269998038800     -0.54129899824134
  H           1.69916485174835      3.72428695464321      1.09148434088592
  H           4.68141793773955      3.02268977925101      0.81765043553223
  H           2.83297933012931      3.50322087851627      3.20644448992927
  H           4.62364583683182      3.12846136573631      3.25678534908878
  C          -0.14809081045488      2.25300363241530     -3.38014075182830
  H           1.34991766129222      0.90050513640066     -2.59934612102630
  H           1.96500263107898      2.50958624658311     -2.96347272256636
  H          -0.99580760091778      1.71538293759862     -2.96406501760221
  H          -0.00836762041308      1.94714379284720     -4.41354392374097
  H          -0.37836976914484      3.31512884807001     -3.35566147189178
  H           3.64576023539024      4.29695931576379     -1.20768509844397
  H           3.10756498218811      5.48474692737717     -0.01904830624127
  H           1.94245725924634      4.77362149961709     -1.13687403899723
