17
Coordinates from ORCA-job NEB_product E -34.632751018890
  C           1.69954335984733      0.58932948516627      1.50010614822402
  C           0.78130950610764      1.00893380233325      0.36595826207440
  C           1.72376392336119     -0.92824106300170      1.67305172809797
  H           2.72350108685631      0.87515236171729      1.22830853258117
  H           0.73485996275844      2.10931435953760      0.26371802900202
  C           1.29730717346092      1.32708900856295      2.79516048750165
  C          -0.17732150938698      1.23729531406780      3.06152196202398
  C          -0.98256363246585      2.28210693370848      3.06477178641918
  O           0.16451163387650      0.27733827890177     -0.34381719812361
  H           1.85268789142124      0.89449196542047      3.63127997717107
  H           1.58755226670627      2.37474421278835      2.69734543875374
  H          -0.56411051912114      0.24754173441752      3.25552647778151
  H          -0.62204253810868      3.28120174348377      2.87856779622277
  H          -2.03532470695372      2.18549992473838      3.26298372592283
  F           2.51512428854846     -1.27956241508238      2.70599603130284
  F           0.53184049332776     -1.47359806607717      1.91363077946689
  F           2.23096131976430     -1.53883758068264      0.59549003557756
