17
Coordinates from ORCA-job NEB_reactant E -34.625556076370
  C           1.79543454462407      0.07019658077311     -0.01975515851273
  C           1.17111115923146      0.97991137737125      0.73169652299331
  C           1.93737190015225     -1.34714525653509      0.41940048484988
  H           2.22807545944693      0.31756353515870     -0.97058516828333
  H           1.08233393146098      2.00320963188827      0.37737388474492
  C          -0.08350025325727      2.18585538463454      5.03480403613239
  C          -0.21085670016085      1.34054547803389      4.03106987696245
  C          -0.07227500325876      1.72047957260366      2.58871637145068
  O           0.65149525749338      0.69488619223966      1.92191711194158
  H          -0.20914761447850      1.87240157351574      6.05600433012870
  H           0.14056577367238      3.22854063841240      4.87818213165392
  H          -0.42783791828275      0.29497319129036      4.19200881877690
  H           0.43983720000670      2.68516616288597      2.48351614062469
  H          -1.07158185663254      1.80307958965038      2.13252883189969
  F           2.67292495019767     -1.48928354332011      1.53899502882575
  F           0.75907832138211     -1.94575544490803      0.67736325713436
  F           2.53937084840275     -2.09662466369468     -0.51903650132318
