21
Coordinates from ORCA-job NEB E -46.057511859110
  C          -0.71243697119966     -0.38812655484493      0.99429474845431
  C          -1.78064546459263      0.46148087240947      0.75133747902615
  C           0.33217158467412      0.00151572619487      1.98469634422840
  H          -0.91023438160690     -1.45127998271059      0.98354416687256
  F          -2.89024611258516     -0.18951329875985      0.26893059080198
  C           0.41521632211950      0.01569194250880     -0.90900254095400
  C          -0.37440246202058      1.01835461244403     -1.46879612401212
  C          -0.59066209278961      2.20632792065008     -0.79743373000116
  O          -1.76067391795286      1.68458469683069      0.61458350165516
  O           0.46541179719435     -1.16845913347892     -1.51410248987976
  H           1.26796073708965      0.29294072635571     -0.29585764151283
  H          -1.06116747227838      0.71068427394117     -2.24523807310735
  H          -1.24621130593945      2.94581509187132     -1.22661941226561
  H           0.15139341331028      2.58044085725793     -0.10979320273896
  F           1.42668060346800     -0.78530405509665      1.89183529486118
  F           0.77664254529340      1.25919856767789      1.87391079657046
  F          -0.09698879675982     -0.13498863310482      3.25298781959333
  C           1.45901855700660     -2.08105687813416     -1.08559828759408
  H           1.27870055935435     -2.40860811060444     -0.05915038544258
  H           2.45495352306792     -1.63533732972557     -1.14741487917961
  H           1.39551933514687     -2.93436131168202     -1.75711397537546
