21
Coordinates from ORCA-job NEB_product E -46.097654753210
  C           2.70865286198532     -0.27055870769540     -1.47182140483238
  C           1.47856146023979     -1.14203340643028     -1.60052701626770
  C           2.40688005237542      0.98756837247688     -0.66427319220680
  H           3.48459006286966     -0.83043007156986     -0.93938829247407
  F           1.73254985853926     -2.38790317732777     -1.14684772062819
  C           3.23362767783909      0.07758482385221     -2.89361258555168
  C           2.29383182182263      0.98938204243462     -3.63503391989814
  C           2.63195187321316      2.20104631927744     -4.03327646066637
  O           0.41649318251241     -0.87011519498638     -2.02505295192637
  O           3.39196712226205     -1.17522572152849     -3.52985405644176
  H           4.21584167087381      0.57093868458233     -2.78700967314536
  H           1.31666067372517      0.57643193280778     -3.83760363738538
  H           1.94193157286549      2.83159953251154     -4.56540145678652
  H           3.60608659798521      2.61693356141173     -3.83091268091034
  F           3.44907923808601      1.83192269632854     -0.67463486211385
  F           1.35088881880256      1.67484637189769     -1.09340009795280
  F           2.17646576704368      0.68756739635577      0.62140735229778
  C           4.06917123634186     -1.10238116577939     -4.76328475448450
  H           5.07213839506552     -0.67964320258928     -4.63379015653173
  H           3.51752166699660     -0.49605733375577     -5.48833877776968
  H           4.14620838855529     -2.12567375227389     -5.12244365432415
