19
Coordinates from ORCA-job NEB_product E -37.911319547490
  C           3.24823721852851      1.38507936235736      1.64521118576608
  C           1.86480910138760      2.05962031729749      1.60652187447536
  Cl          3.41291986019540      0.14225278343482      0.37178687081379
  H           3.99603722158952      2.15514994593898      1.42412471009710
  N           1.27114184739013      2.07623595613815      0.40504106440095
  C           3.50237427318353      0.80636081232761      3.04588738424978
  C           2.79005846659138     -0.50422936200645      3.24691258694298
  C           1.61566171905898     -0.60156568550947      3.83852380378454
  O           1.40143807062147      2.58047896742941      2.59468671015027
  C           4.99410853614494      0.65588651108112      3.33858657459599
  H           3.10734644566440      1.55255506374687      3.74622949969305
  H           3.29309816147495     -1.37379544664535      2.84662444939404
  H           1.10621379577278      0.26592386785120      4.22388684023043
  H           1.11582177474836     -1.54819188870799      3.94877024707255
  H           0.36131957185262      2.49815962620486      0.32143101169789
  H           1.65774647653699      1.56519296734913     -0.37146947421180
  F           5.61033446745652     -0.17332199084733      2.46535830642155
  F           5.62866400908718      1.85039762396519      3.22909541757264
  H           5.17906898271473      0.26831056859439      4.35249093685279
