19
Coordinates from ORCA-job NEB_reactant E -37.875283629500
  C           1.96469351928138      0.19431906029229      0.07991864161156
  C           1.54107106058346      1.19065093725523      0.86833560512670
  Cl          2.23333958646321     -1.45888460096699      0.52800938779989
  H           2.19152170787680      0.39109295563054     -0.95311260972754
  N           1.40241389019323      2.47529871024527      0.35491576472656
  C           3.96398132234536      0.55705048912200      4.33759892173535
  C           3.29766338875371      0.50619500200509      3.19700792218204
  C           1.81966730803401      0.29741836692577      3.09854785949925
  O           1.20126318356509      1.18965767915954      2.18588161090738
  C           5.44818435294159      0.73993385149262      4.42786110999663
  H           3.48264780609485      0.44102433354280      5.29763242163632
  H           3.81466330784275      0.61930698689101      2.25377916179975
  H           1.32990993726319      0.50559571511095      4.05293253613641
  H           1.61954798036547     -0.74373482267968      2.81830687698646
  H           0.82446113102811      3.06198400145824      0.93831265321221
  H           1.18098198926097      2.53364054797452     -0.62598152232638
  F           6.01421721760891     -0.27530893124498      5.13604430807286
  F           6.04690254728489      0.73569122096773      3.21535118394385
  H           5.73006876321304      1.67966849681803      4.93545816668071
