21
Coordinates from ORCA-job NEB_product E -43.966729602060
  C           1.21688191935387     -1.18428139339327      0.79205663348250
  C           2.47519539482850     -1.78537923258152      1.44204926589748
  C           1.45108124490767      0.15833358319057      0.13277051333098
  H           0.91142717445702     -1.89097554665379      0.00688249573037
  O           3.41150669188774     -0.87450949953481      1.63390253977173
  C           0.09534642135789     -1.16461292724911      1.84888893159205
  C          -0.56723641629807     -2.49756559165145      1.96157698005114
  C          -1.87355200030096     -2.66168768808227      1.87010703676001
  O           2.55201804334922     -2.94920147382119      1.71747627537266
  Cl          0.78746690547531     -0.74676443299333      3.46755775922832
  H          -0.63982610275805     -0.38509664812587      1.62766433191859
  H           0.10410703385533     -3.32561443925356      2.13913142220994
  H          -2.54211155187725     -1.83404648379670      1.69708983082518
  H          -2.32528393844754     -3.63335054921859      1.96202243167900
  Br         -0.15628623891784      0.66902428993087     -0.87030603650844
  Br          1.85212572941560      1.59769853766553      1.35433811970975
  Br          2.89863855171910      0.02417755262827     -1.16604627239192
  C           4.62623906131272     -1.26944313483933      2.26397795078052
  H           5.44464433983271     -1.04491552350559      1.58063050599518
  H           4.59796573742479     -2.33582487713672      2.48979331092537
  H           4.73105199942223     -0.68726452157813      3.17893597363959
