21
Coordinates from ORCA-job NEB_reactant E -43.944758275800
  C           1.21496134920243     -0.50421861740603     -0.19502289856890
  C           1.91373709090210     -1.00726931142069      0.84532314364651
  C           1.92007805086719      0.22119278933895     -1.25376933744175
  H           0.14970310568921     -0.61573552508276     -0.27851443244441
  O           3.23558517183651     -0.82320381840604      0.87128069837356
  C          -1.05145937428127     -2.27797453306210      4.16499039611400
  C          -0.24119552678876     -2.70203905728219      3.20925570423982
  C           0.02067786993470     -1.92315727712968      1.95855497324306
  O           1.42099303355489     -1.69112977700197      1.88802041326848
  Cl         -1.35857280805462     -3.17873384301127      5.58718143656867
  H          -1.59403313607590     -1.34558683585909      4.11302861990016
  H           0.29219262842878     -3.63590194460908      3.30008429258503
  H          -0.51827465667794     -0.96870994786503      1.97262913611307
  H          -0.29603156686546     -2.50467902454247      1.08164435274500
  Br          0.69020087528164      0.83489273782954     -2.62094550165804
  Br          2.88704480020275      1.81242780218582     -0.56837480468256
  Br          3.29557249003341     -0.89170348953103     -2.14974550776176
  C           3.97114114467942     -1.35195887431376      1.96018117822407
  H           5.00426191002875     -1.07046930438960      1.77019513123216
  H           3.87800318214726     -2.43884159055427      2.00020896776066
  H           3.63021436595491     -0.92350055788726      2.90449403854315
