23
Coordinates from ORCA-job NEB_reactant E -42.292974285700
  C           1.77144141831261     -0.78359755835098      0.22997435066458
  C           2.18864412376208     -0.34535006231368      1.42315961938466
  C           2.51423426244328     -0.71567195717059     -1.03875783952870
  H           0.78987989992287     -1.23177679095462      0.16034641741137
  I           4.05425535257861      0.56825695044356      1.77173591179280
  C           0.13320924873644     -3.25659699102332      3.76135350136392
  C           0.37175424463235     -2.50919942340992      2.69573268765348
  C           0.26410334943214     -1.01436065408031      2.69528152195051
  O           1.54223101745367     -0.37855812440353      2.58098498889240
  C           0.23087605241659     -4.74491598168231      3.79456933810634
  H          -0.18342822303329     -2.78997892794579      4.68555520696088
  H           0.69410654304857     -2.96926414553082      1.77156268415677
  H          -0.11734024195312     -0.66006137822585      3.65517709246471
  H          -0.39661424268980     -0.65780405976534      1.89476095695535
  Br          1.44633350324407     -1.49774896989677     -2.47456284337944
  Br          2.93820877688635      1.13689204245463     -1.59624473811494
  Br          4.21567412281316     -1.72568931621980     -0.98873938915449
  C          -1.10556319480701     -5.37378393434647      4.18835080763438
  H           0.98718892326135     -5.02928200996220      4.53139975083586
  H           0.54628441935242     -5.12211234629243      2.82056431682513
  H          -1.42141205646441     -5.02024387603609      5.16712488159994
  H          -1.01604406094735     -6.45628826015198      4.22497928483570
  H          -1.87402323840158     -5.11446422513541      3.46379149068879
