23
Coordinates from ORCA-job NEB_product E -42.292391652230
  C           1.58144109136258     -1.46161688559087      1.65055007087662
  C           2.76974505449896     -0.73724885424515      2.25834463147011
  C           1.93608346459694     -2.22215914232406      0.38090905858054
  H           0.95418547731934     -0.62740288856655      1.29005249473818
  I           4.34451093433703     -1.94098963841222      3.10897625475653
  C           0.76440420115070     -2.09426893889958      2.82790106235033
  C          -0.69302776600090     -1.76463702260514      2.64106039397728
  C          -1.39712593255726     -1.07767186969560      3.51968117318435
  O           2.84316593348211      0.43860735054251      2.36683710255412
  C           0.95211006108366     -3.58445932561482      3.17334661746999
  H           1.10527376819357     -1.53530519407836      3.71136745731317
  H          -1.15436337195261     -2.12715710772823      1.73446481672209
  H          -0.96287527166340     -0.70261665296097      4.43239578359822
  H          -2.44065641738392     -0.86544517958209      3.36575668419342
  Br          0.32206202728044     -2.54867925023649     -0.67969696873518
  Br          3.08385745586038     -1.02497889830175     -0.72299997160852
  Br          2.88593582799726     -3.90473159494610      0.50204961948344
  C           0.07228434598156     -4.56374901133945      2.40375602710265
  H           0.69934427136141     -3.68232985925491      4.23170411853586
  H           1.99893465943999     -3.87087946923096      3.07894432448412
  H          -0.97801173698040     -4.38922806579576      2.62232628260566
  H           0.32009880955101     -5.57630160725557      2.71185240396223
  H           0.21122311304154     -4.50355089387789      1.32952056238478
