17
Coordinates from ORCA-job NEB E -29.714706366880
  C           0.90218939856903     -0.40178077847367     -0.91003098334783
  C          -0.46528284236568     -0.70256427845874     -0.73927974559441
  F           1.80536280068909     -1.33213905052892     -0.52497933250572
  H           1.23756095374091      0.06906365645705     -1.83217848186476
  C          -1.48765873426148      0.07509339447128     -1.51793744595884
  C           1.11232795865242      0.86427827398711      0.45158492250426
  C           0.77153137542270      0.13948408851326      1.60110507078101
  C          -0.56433981064744     -0.34285595601176      1.67443964184126
  O          -0.81683230069653     -1.27995386830210      0.37294330301236
  Br          2.91827679825818      1.50112272142806      0.29948920706321
  H           0.43560378806673      1.63416715112406      0.09302055774766
  H           1.55015996620731     -0.40456409038911      2.11411206587565
  H          -1.35120151317498      0.39448542813539      1.52488978252950
  H          -0.78032438514160     -1.01704185268309      2.49394000710210
  H          -1.82733936850281      0.93636526686026     -0.93543899554083
  H          -2.35522255582665     -0.55438171958700     -1.70143175327409
  H          -1.08481152898920      0.42122161345793     -2.46424782037052
