17
Coordinates from ORCA-job NEB_product E -29.756649230880
  C           2.86056826173080      2.09131067697874      0.17444568771589
  C           1.42704026153798      1.55030388463351      0.01739053666970
  F           3.75078107905231      1.04951857663330      0.13606297718775
  H           3.12608063328516      2.76199114775514     -0.65234868562652
  C           0.52890254874471      2.44102505990432     -0.79242445145389
  C           2.94428442237356      2.80804295328418      1.52422831553727
  C           2.86732628698929      1.86408040871592      2.67118643862053
  C           2.00406202143856      1.99866742231693      3.66060439073501
  O           1.08724101406868      0.51638258745901      0.51825790578457
  Br          4.65726709973906      3.81960290569627      1.61963184745990
  H           2.17028785499189      3.57668911117439      1.57928836011874
  H           3.57594681742569      1.04885062027278      2.64415842487592
  H           1.29569974902231      2.81094152253411      3.69652247118686
  H           1.96982579824344      1.29580404385060      4.47355991824729
  H           0.66461101783584      3.48535868962859     -0.52179025936410
  H          -0.50815854687759      2.14689867085202     -0.65632319747020
  H           0.78963368039829      2.32913171831019     -1.84435068022473
