22
Coordinates from ORCA-job R E -40.513121387280
  C          -1.43213944113443      0.05330365574259     -2.74976786767734
  C          -0.73760748426842     -2.66154019820762     -1.60387543496097
  C          -1.95810274468043     -2.15540152426485     -1.74569279020455
  C          -2.29408827321988     -0.88779700996636     -2.36867941010520
  C          -0.82951689887110      0.90158737959643      0.27818760509591
  C           0.31524223882594      0.25162138657970      0.37440757215489
  H          -2.80677435725119     -2.71853941363596     -1.37808603692040
  H          -3.35277481458556     -0.71576277133573     -2.52261353319928
  C          -1.84558970480588      1.33857108430057     -3.38364486579247
  H          -0.57888095542609     -3.61161227031121     -1.12343594817307
  H          -0.36937105091055     -0.06057901282917     -2.60026049607572
  H           0.14176078432428     -2.15837779024482     -1.96507395327705
  H          -1.74215095716222      0.45482747620540      0.63015628918385
  H           0.37155476953954     -0.73974461227091      0.80179942392562
  H          -0.90182790224551      1.88371246075003     -0.15559486635439
  C           1.63516822841403      0.76185356890356     -0.08473884211021
  F          -1.34663417098372      2.41116334692409     -2.67094039703679
  H          -2.93352938602797      1.45748440821704     -3.40721871869750
  H          -1.43449352984249      1.43326236864759     -4.39671477417272
  Cl          1.59009096792194      2.40035811371428     -0.74536345227663
  Cl          2.78727462118003      0.73536488127071      1.28674819562236
  Cl          2.27875006120968     -0.33043552778538     -1.34783769894836
