21
Coordinates from ORCA-job NEB E -32.759170656330
  C           0.61190415629300      0.64254029735094      1.52167062742061
  C           1.30653985032663      0.75340604344282      0.39727102177596
  C          -0.83816233298409      0.99782756061431      1.64681937065595
  H           1.10211701663523      0.27556537260600      2.40937565329449
  Br          3.16924971953371      0.22055635907415      0.42290121348378
  C          -0.21386337088021     -1.22029832865642     -1.55793982151187
  C           0.57977083795527     -0.51345436671057     -2.34887269051729
  C           1.22995852141429      0.78723419592720     -1.98792606453097
  O           0.85393378781649      1.31670278030011     -0.72885186372395
  O          -0.77719812036217     -2.38953396060618     -1.97510568051288
  H          -0.46505518772384     -0.89645699931132     -0.55656978221389
  H           0.80212484571584     -0.87285031518756     -3.34150031595749
  H           0.94221944667924      1.56083553373076     -2.70776509107663
  H           2.32350481210039      0.67319724458662     -2.03679942574958
  C          -1.66749813899111     -0.19132574068983      2.16538960531054
  H          -1.20744394584008      1.33738497426485      0.67897984750274
  H          -0.92399678359391      1.83552216875454      2.34270239507286
  H          -1.02540654505990     -1.03971528757334      2.39398771860481
  H          -2.39926664812363     -0.50939151354179      1.42690949778381
  H          -2.20379386163627      0.07157530108075      3.07323539084639
  H          -1.19963805927457     -2.83932131945596     -1.23791160595729
