21
Coordinates from ORCA-job NEB_reactant E -32.768629365630
  C           2.63456784380725      0.14730125706281     -0.42383857995859
  C           3.39680813062055      0.62164843049019     -1.39855335391179
  C           1.33519552308543      0.76509333771261     -0.01041172853133
  H           2.96803616762367     -0.71246712012807      0.13536076924367
  Br          5.04900809092765     -0.29957185467260     -1.80304202953541
  C           1.70028248577551      0.13473546146420     -3.96091518079254
  C           2.84002346969915      0.72750673247930     -4.28896658811982
  C           3.49169358710279      1.79550504983370     -3.46059820778724
  O           3.15443005103602      1.74776681945603     -2.08349574271776
  O           1.08571303980910     -0.84234467154515     -4.66043757057406
  H           1.14412480544884      0.38798600713552     -3.06985617536172
  H           3.37142836697500      0.44905513347410     -5.18850585568303
  H           3.17183348465559      2.79421259060394     -3.77798725357914
  H           4.58257398340019      1.73368648684390     -3.57711284395580
  C           1.40902109385882      1.27756135680961      1.42735309560484
  H           0.54726220153861      0.00955409601221     -0.08112394673749
  H           1.09156009220934      1.58955622497729     -0.68161275848245
  H           1.65102460677907      0.46600865893526      2.10993156607460
  H           0.45481467431805      1.70629899607316      1.72360663342379
  H           2.17579943662744      2.04345829473201      1.51581923363070
  H           1.60159886470192     -1.06255128775003     -5.44701348224943
