20
Coordinates from ORCA-job NEB E -41.973523993350
  C           0.72443677706311     -0.85713415321383     -0.48742397212304
  C          -0.41300376387838     -1.46468182436766      0.08677077644876
  F           1.90611321402321     -1.01908980279187      0.13890581331549
  H           0.86588043396336     -0.95975275371859     -1.56308456188736
  C          -1.60545712009351     -1.70864244967269     -0.81781140887231
  C           0.39441210338736      0.95799102950657     -0.16683857960284
  C           0.23252801734042      0.95317244607808      1.22721019755638
  C          -0.86407500079047      0.22917136237285      1.78012649207004
  O          -0.63746484036485     -1.31025856267235      1.36165544821214
  C           1.55277459797331      1.73137005024097     -0.76173473140699
  H          -0.49746183899923      1.07326681177700     -0.77645336487212
  H           1.11132381831308      1.10641555380161      1.83693009983265
  H          -1.83824528051506      0.43042592542008      1.33978667437118
  H          -0.89959054633698      0.16772492888934      2.86106394925813
  F          -2.19293106705322     -0.53314994900252     -1.21570980591722
  F          -1.23347026592698     -2.32374326606773     -1.96199827780259
  H          -2.37953488758198     -2.31085035146157     -0.32267802542411
  F           2.63449184686514      1.76176252349514      0.07188266944529
  H           1.24874361749870      2.77379966451881     -0.91974399981182
  H           1.89053018511298      1.30220281686837     -1.71085539278963
