20
Coordinates from ORCA-job NEB_product E -42.003270801530
  C           1.92243166951450      1.92422463865399     -0.78859421813203
  C           0.77082110993376      1.72820449896784     -1.76122022378007
  F           1.53865951955940      1.41497136996661      0.42751428702890
  H           2.81266875387758      1.36300822679296     -1.09621902456987
  C           1.16735907439213      1.39372056835527     -3.22199572591110
  C           2.24726760408530      3.42439023146070     -0.59860742711949
  C           3.43327173969959      3.55149097939097      0.31621608093388
  C           3.37302711792796      4.07663405451474      1.52408686480434
  O          -0.38261729720906      1.81723744860229     -1.46280810288044
  C           2.53284668603970      4.11368341771156     -1.93657302293139
  H           1.37327053177327      3.89217678307133     -0.13316098333245
  H           4.36564761382266      3.17993165315636     -0.08747753573161
  H           2.45045940164998      4.44933053012369      1.93629422879217
  H           4.24506812402599      4.15733039826845      2.14886575129657
  F           0.71387755034765      2.35704778718433     -4.05170572124845
  F           2.50728799349656      1.33392113062098     -3.39571498587833
  H           0.73033743632184      0.43271504091296     -3.53788307005241
  F           2.85465411146987      5.42408505359770     -1.70368379011965
  H           1.65669312748053      4.12510781557332     -2.59299637797587
  H           3.38946813179079      3.66338837307395     -2.44993700319269
