20
Coordinates from ORCA-job NEB_reactant E -42.002187944920
  C           2.65401111803850      0.89168240472631     -0.95457819036222
  C           1.46520584296287      1.48531810391635     -1.06267359203910
  F           3.61026670552337      1.24052292593904     -0.07492236982055
  H           2.96223562895362      0.06854777146546     -1.57783584954042
  C           0.51832480164144      0.98504024733119     -2.13572600429532
  C           2.85866247077876      4.35399626397642     -1.33914345734074
  C           2.77102202229202      4.06832997841002     -0.05157818098153
  C           1.70081534297575      3.21745260415772      0.56454462710382
  O           0.91606643642507      2.50636597056187     -0.37872916203796
  C           3.92456620158112      5.20966152727105     -1.94213572926148
  H           2.14241176782841      3.98184345935880     -2.05864163296835
  H           3.49477775630312      4.45723498999794      0.64927207456965
  H           0.97844231408180      3.85500870076380      1.08583588817557
  H           2.14166140996650      2.53197843426821      1.29722153626273
  F          -0.71307554811015      0.75931497009236     -1.63658055374087
  F           0.37431357945637      1.92441224527341     -3.10350828973603
  H           0.86904614671858      0.06002537254696     -2.61684975269376
  F           4.78903451060551      5.70442962667752     -1.00007992311270
  H           3.48388001929585      6.07401269700014     -2.45457656195488
  H           4.52853147268150      4.63642170626542     -2.65711487622587
