23
Coordinates from ORCA-job NEB E -38.950579983830
  C           0.14827530910250     -1.12875235229882     -0.22159262173069
  C          -1.02542001964393     -0.74454646018153     -0.97349533778321
  H           0.01829028044297     -2.09403233715042      0.26207855668172
  H           1.06368196359430     -1.13200710517901     -0.80431630399306
  C          -1.02598991758909     -0.11750541907699     -2.26042234476010
  C           0.28087904987874     -0.04749514258139      1.02382478874616
  C          -1.05269586561123      0.34085091934046      1.46609369670592
  C          -2.09467839252524     -0.64296711487557      1.18026115723818
  O          -2.15861818820356     -0.61922902418103     -0.28970129423432
  C           1.17409684006940      1.14575362421528      0.68183873897464
  H           0.78143222128387     -0.66715267935334      1.77370233106693
  H          -1.34066538277562      1.37298359505064      1.31034430299431
  H          -3.09671359100103     -0.35802398556777      1.49288859863724
  H          -1.86688656424500     -1.66121586400182      1.50706347163843
  Br         -1.65121357556834     -1.70459527923733     -3.69582270966176
  Br         -2.36778764515464      1.24685373809696     -2.46668554340707
  Br          0.65826182547242      0.45582599873653     -2.97239931861724
  C           2.63526701242487      0.77563982113377      0.46011053291627
  H           1.11295617758950      1.84944663226004      1.51464464452769
  H           0.78868698592308      1.65458457414569     -0.20356815199180
  H           3.02325295954681      0.21911403460126      1.31064694976065
  H           3.22841560857152      1.67829591605406      0.34269311433957
  H           2.76717290841771      0.17817391005033     -0.43818725804849
