25
Coordinates from ORCA-job NEB E -44.820938487970
  C           0.34374759010384     -0.94941486408167      0.04868949691683
  C           0.41096035567432      0.03495829058932     -0.94563953728806
  O           1.44263001825712     -1.16547832836335      0.87291590807929
  H          -0.19900813100449     -1.85458995269814     -0.22764654182764
  O          -0.43580447979123     -0.13126926881583     -1.99055073186529
  C          -0.72290492466286      0.05794886054354      1.44588248686369
  C          -0.70456557596722      1.40065416766101      1.08633481732809
  C           0.56167560982712      1.92199223795123      0.70737914130846
  O           0.92485344549166      1.19458796360127     -0.72802076527419
  C          -2.05294563760718     -0.64045246526452      1.56435844507260
  H          -0.00284815939911     -0.27850426836240      2.18241396594015
  H          -1.58352229113882      1.81364137039369      0.60763864726255
  H           1.40245908840673      1.60341833528181      1.31606340764179
  H           0.61482064618299      2.96165194598178      0.40964791614494
  C           2.43295293055227     -1.97191966972121      0.26929903773415
  H           2.02134532146118     -2.94271077542260     -0.02931668997607
  H           3.20527349550438     -2.11781539589783      1.02179498758630
  H           2.86158880055290     -1.48160613363714     -0.61087477419605
  C          -0.68768778172813      1.00616339417482     -2.79847803424093
  H           0.24682432663936      1.42312147381256     -3.18154190680827
  H          -1.21767151463913      1.77537633196253     -2.23320182888990
  H          -1.30853225188478      0.65257274287101     -3.61764812952173
  F          -2.70878172787457     -0.23921446321566      2.68829894692699
  F          -2.87514705870693     -0.33610297817976      0.53016018510192
  H          -1.96971209424943     -1.73700855116448      1.61204154998041
