19
Coordinates from ORCA-job NEB E -45.032221971860
  C           0.93291228054167     -0.25784517763542      0.29616310740999
  C          -0.22096914937553     -0.93426404738494     -0.25222527248868
  N           0.57925670728411     -0.09064618230106      1.73292346885512
  H           1.88288118264328     -0.78057699873503      0.20065331375865
  C          -0.11370217894775     -2.27380197822113     -0.90660858337214
  C           0.96962991405635      1.26751803625496     -0.17773992793587
  C          -0.33102627563144      1.77493188789585      0.25095830752391
  C          -1.48714834372641      1.10183775495456     -0.37398024854857
  O          -1.42427704053073     -0.33730134070450     -0.22023861660013
  F           2.02016876920090      1.91662279574920      0.40820658533804
  H           1.15221587353905      1.26759810517630     -1.25596851264896
  H          -0.42848631218586      2.70073727970016      0.78640206762831
  H          -1.53641664567203      1.29404122448242     -1.45075033096582
  H          -2.42670894430371      1.39153630649660      0.09608267451789
  O           1.18240917759477     -0.71375398625783      2.58079424432198
  O          -0.41073029403786      0.63606643102606      1.89406835657901
  F          -1.31356404259593     -2.84374469864029     -1.09085131894409
  F           0.43932881630308     -2.14443428929390     -2.16288672994968
  H           0.53422650584404     -2.97452112256201     -0.35500258447895
