24
Coordinates from ORCA-job NEB_product E -39.002392541230
  C           2.65709726247659     -0.26730873353424      1.51667575162680
  C           1.39226573483838      0.57364539864367      1.80995345433364
  N           2.23962055573296     -1.26202231654050      0.49934850758508
  H           3.40284678589359      0.35777053743843      1.01800873209411
  C           1.24113202033747      1.77014502181573      0.91281932575733
  C           3.28191711212626     -0.88715117708134      2.78265915817911
  C           2.31071852548032     -1.64749298195424      3.64723240568164
  C           2.19512319317189     -1.44360545408493      4.94594479283686
  O           0.61826472449308      0.26354611168085      2.66945209810842
  N           4.42279989234534     -1.69462288451642      2.35458233207248
  H           3.68468179945102     -0.04577094607665      3.36233048245893
  H           1.76018393819185     -2.43622461603492      3.15679677357146
  H           2.74231321657780     -0.66392105977967      5.45184837722324
  H           1.53481978612353     -2.03538971920861      5.55515326942015
  O           2.07074525528069     -0.82159258355734     -0.61375373418190
  O           2.07667388518240     -2.40826201161011      0.82452134147277
  C           2.18905267224499      2.89260959205120      1.34419500557501
  H           0.21058747503741      2.12127763129954      0.97980841482446
  H           1.45742109724330      1.47420227567196     -0.11601081267748
  H           1.99035453949765      3.17896638653784      2.37415831850920
  H           2.03598498878835      3.76046986725064      0.70884276680171
  H           3.23015734164983      2.58974383948867      1.26310339489479
  H           4.09220882527355     -2.55175951766281      1.91984408218028
  H           4.97802937256174     -1.96135266023676      3.15908576165188
