20
Coordinates from ORCA-job NEB_reactant E -32.645048582200
  C           2.34187246278385      0.34066843818558     -0.11871528519079
  C           2.52411147039177     -0.68693333009258     -0.93372425393491
  C           1.25411164223974      1.35482132270985     -0.29181704331676
  H           3.00219996846588      0.47837571762157      0.72255769106339
  I           4.15962781664049     -2.03187904257613     -0.54919791212555
  C           3.07383824103092     -3.64170454012061     -3.75833834322550
  C           2.07073875625414     -2.84868355931356     -3.43495479599749
  C           2.22565971683063     -1.37839623296769     -3.19860023195252
  O           1.68971371972048     -1.00620600005861     -1.93221993229328
  F           2.89171201534880     -4.94684670259922     -3.98715617534503
  H           4.10532414981025     -3.34627716955579     -3.89034983688835
  H           1.07498639269452     -3.24763931576705     -3.31133316338408
  H           1.63504147146605     -0.82618576486331     -3.93969569134639
  H           3.27391625866167     -1.07608755768200     -3.28736524758658
  C           1.82310044898409      2.77193326857920     -0.29775293522443
  H           0.54818709763056      1.25509076729022      0.53773361602170
  H           0.71382841327409      1.15811975348566     -1.21864055888684
  H           2.35147068179520      2.97489795372210      0.63095292971383
  H           1.02164956661607      3.49863484093191     -0.40496554634124
  H           2.51870970936081      2.90069715307044     -1.12401728375921
