20
Coordinates from ORCA-job NEB_product E -32.666717883120
  C           2.28432322550426     -0.36778723168730     -1.17326503971575
  C           1.04301928847972     -0.92890269621096     -0.56330129937561
  C           2.31161537938728      1.14020011441615     -0.83366662693491
  H           3.17174682555248     -0.84104065195989     -0.74442954563700
  I           1.32092050637067     -1.48564004328335      1.52385452788002
  C           2.24768316546168     -0.64969862521192     -2.69003662480400
  C           2.26428446008224     -2.12619486829455     -2.95536348317411
  C           1.21619787428054     -2.81147910872602     -3.36856921649641
  O          -0.02684734013974     -1.04378040131997     -1.04727186799320
  F           3.35861797857236     -0.07699915372084     -3.27685697335310
  H           1.37307794033756     -0.16949141226651     -3.14536480725374
  H           3.21931942187798     -2.60105065725440     -2.77621109711050
  H           1.26438102946658     -3.87463416832761     -3.52751798676201
  H           0.26483759112654     -2.33948361551340     -3.54942591814987
  C           3.72264320753870      1.71412737608393     -0.85270430301542
  H           1.88936859159568      1.28600110644486      0.16472013563561
  H           1.67672027662894      1.67396659499093     -1.54345231415506
  H           4.34567724038730      1.21905247841335     -0.11130421381333
  H           3.68637938895507      2.77443381293376     -0.61569420155043
  H           4.18043394853416      1.59470115049374     -1.82963914422118
