18
Coordinates from ORCA-job NEB E -42.158409393340
  C           1.05993620844703      0.30193128078654      0.30873460720352
  C           0.43003483517926     -0.09345238729802      1.49021666044847
  C           0.96168413937428      1.72332893903406     -0.15259964606863
  H           2.05646642876543     -0.09288963669380      0.13739644205446
  Cl          1.20093396193434     -1.49925533127768      2.27222886186609
  C          -0.12162214202407     -0.90822355409412     -0.96574649846557
  C          -1.39893182073761     -0.52037394166373     -0.55911188087810
  C          -1.85064087320982     -0.80811299214856      0.72589820433724
  O          -0.74747068099701      0.14682652060384      1.80117344247673
  O           0.25698327455734     -0.60935144543674     -2.22063364706152
  H           0.31717823439334     -1.80053150532644     -0.52456765122907
  H          -1.89123603733021      0.23574040806536     -1.15010668399925
  H          -1.58160896585205     -1.75238147412112      1.18040239318674
  H          -2.80275652216305     -0.40903026249846      1.03849538118005
  Cl          1.60725936735744      1.91260797357652     -1.79619850227024
  Cl         -0.64685130586868      2.43160594808037     -0.08038870826257
  Cl          2.02640732334570      2.71257351977505      0.93169954189629
  H           1.12423457482834     -0.97101205936307     -2.43689231641464
