18
Coordinates from ORCA-job NEB_product E -42.193599542380
  C           1.59359684833543     -1.11862868155901     -1.34245143491435
  C           0.95156428027202     -1.19163740204142      0.02076268928206
  C           1.31085955505476      0.23003556954593     -2.00474096419590
  H           2.68139559343665     -1.19905038472690     -1.22615758311703
  Cl          1.69999103291300     -2.45020118590105      1.00368942893178
  C           1.20754348365272     -2.37791946893256     -2.18777182590530
  C          -0.13554754539660     -2.26997149088208     -2.84979741633482
  C          -1.23884448433042     -2.78556662342530     -2.34145330073846
  O           0.06021913096408     -0.55272299662628      0.45916127881628
  O           2.25566315159526     -2.56930179408202     -3.10748048263465
  H           1.19212463823640     -3.22423804839588     -1.48046332172399
  H          -0.13889639016643     -1.75943647003416     -3.80284503397814
  H          -1.24302919179595     -3.29668899071017     -1.39274783867819
  H          -2.18511476291217     -2.70114235524347     -2.84543083581792
  Cl         -0.41449450039145      0.59356842001429     -2.16030511591431
  Cl          2.04854912096638      1.50607637217109     -0.98845022161238
  Cl          2.05334311457016      0.31735364422944     -3.60878821033391
  H           1.93167692499618     -3.07072811340045     -3.86302981113077
