15
Coordinates from ORCA-job NEB E -30.870465282800
  C           0.80753773423825     -0.86239005792428     -0.00328488862785
  C          -0.43615339874389     -0.72242265477285     -0.81958649983932
  Br          0.41048640722769     -1.96460283098927      1.60054149949298
  H           1.59124661220679     -1.40351691624684     -0.53252150243187
  C          -0.48068548843581     -1.35963493141662     -2.06021724965645
  C           1.17208296529547      0.57644620728222      0.31517494011024
  C          -0.06875635702610      1.32806082921778      0.18319349104115
  C          -1.35824283948805      0.69935773953929      0.60785259300345
  O          -1.60905343239966     -0.38822177674663     -0.23728102983077
  Cl          1.96645709163504      0.83812982714302      1.98005047537959
  H           1.94352297461360      0.92622173832702     -0.37145431218983
  H          -0.00185237467791      2.40351184692889      0.27158539616666
  H          -2.21485045967884      1.37111397534143      0.51815957067948
  H          -1.28230091785903      0.38136049818241      1.66184280934325
  N          -0.43943851690756     -1.82341349386558     -3.11405529264072
