15
Coordinates from ORCA-job NEB_reactant E -30.915109261110
  C           2.05181007311079      0.40436666204934     -0.22678154640239
  C           1.42488682763499      1.18607788324633     -1.12069337627521
  Br          2.15514532565246      0.57014174366816      1.64981409436359
  H           2.58425023186578     -0.46207497111807     -0.58548129892430
  C           1.55400268634222      0.74372725578693     -2.47527889659811
  C           2.86307478371321      3.82436716104236     -0.04971476316976
  C           1.79497117879830      3.61836167262706      0.70252833816260
  C           0.53043310743968      2.98920502905144      0.19207048172659
  O           0.68087264839548      2.30738775802670     -1.03757450244847
  Cl          4.30011205920598      4.53971095115068      0.55627000850805
  H           2.91758644453874      3.56475186022766     -1.09681919181578
  H           1.78020790696820      3.90010958753118      1.74400046935310
  H          -0.20474855154764      3.77112479879854     -0.03096955866775
  H           0.09960450757422      2.33161715204258      0.95552696701900
  N           1.66729077030760      0.38212545586910     -3.55489722483116
