15
Coordinates from ORCA-job NEB_product E -30.910906965570
  C           2.72812608365652      1.55147964848033     -0.54026091247335
  C           1.61459688224234      1.13841709059374     -1.48863518239512
  Br          2.79355524818617      0.13139296241148      0.81740208221377
  H           3.69777480992872      1.50202726422467     -1.04475098788149
  C           1.89919106039276     -0.12932995478850     -2.14051560155790
  C           2.49585586881597      2.92792797036256      0.06504290792566
  C           1.30244849039019      3.01488961010018      0.95477443482809
  C           0.34511925615048      3.91002433538314      0.79865203486279
  O           0.61431376094338      1.77170061527261     -1.68440960937043
  Cl          3.96848780267095      3.37738803522129      1.01306876127327
  H           2.42222360247759      3.65305953705131     -0.75187811719609
  H           1.27794563179153      2.30547378000006      1.77030469629760
  H           0.35929835260424      4.62778240602386     -0.00449838999063
  H          -0.49880848700583      3.94881540400092      1.46421007746744
  N           2.14277163675498     -1.11304870433766     -2.67050619400363
