17
Coordinates from ORCA-job NEB_reactant E -38.012170040680
  C           2.37560390464525     -0.59876204234703     -0.31769878569635
  C           1.64082308938232     -1.33363003100604     -1.15370092107647
  Br          3.31153744623581      1.00496956207992     -0.65380516566719
  H           2.48338373611150     -0.90655042344947      0.70836490423014
  C           1.00448253256709     -2.60102576864751     -0.59607831117588
  C           4.00332259407337     -1.61137292254180     -3.26783274640196
  C           3.39008298738147     -0.46315156275082     -3.50311957039840
  C           1.91797270059622     -0.25521204926783     -3.29138560664711
  O           1.31790537562998     -1.22539249803752     -2.45341888296549
  Cl          5.68807145712049     -1.82436751524231     -3.50964929692159
  H           3.50192894734703     -2.49843757323991     -2.90995863372299
  H           3.93029996492820      0.39667359384398     -3.86814160665528
  H           1.38755991585375     -0.37050043396686     -4.24345670952943
  H           1.72632667971581      0.75672815252114     -2.91877688091138
  F          -0.31417648510594     -2.63933528252302     -0.87157561283730
  F           1.55576405751929     -3.68698313377763     -1.18823462005715
  H           1.13111109599835     -2.70825007164729      0.49116844643384
