19
Coordinates from ORCA-job NEB E -37.389136471360
  C           1.16161778485981      0.73184606749850     -0.16631087760193
  C           0.41481333407479      1.70592671360784      0.52255971147925
  N           1.14850008337903      0.73239114878599     -1.53451008520259
  H           2.10191333996992      0.41246104802634      0.26898364049393
  Br          0.95123795333745      1.93655670487565      2.40571355058113
  C          -0.11488685006268     -0.77780400735377      0.48118952614044
  C          -1.35273004915087     -0.33435765204454      0.02946200190597
  C          -1.93485290304542      0.79444273163877      0.61992299930933
  O          -0.74399095521102      2.05328033490528      0.21759788559357
  C           0.49371197510026     -2.00287630945353     -0.14703443983156
  H           0.12920304552946     -0.70105798949581      1.53393169390041
  H          -1.66495458627419     -0.61828434435356     -0.96650629005325
  H          -1.86114521762227      0.91165943882417      1.69392536383085
  H          -2.83436273027377      1.20260678314785      0.18575531998658
  H           1.61125158134039     -0.03437536322778     -1.99585871066196
  H           0.27821984175643      1.01274927390846     -1.96344698499619
  F           0.32279610542391     -2.02698498249768     -1.49482250595296
  F           1.83357500380536     -2.06434989022272      0.05357539383507
  H           0.06008324306344     -2.93382970656947      0.25587280724392
