19
Coordinates from ORCA-job NEB_reactant E -37.406810272150
  C           1.96098879808923     -0.01150749077529      0.24858394030363
  C           1.50349240324147     -0.91017098406082      1.12263144080425
  N           2.28696631840635     -0.30686549629433     -1.05660344615935
  H           2.17402607773154      0.99380839961661      0.57609791036554
  Br          1.25450832633012     -0.37470783968029      2.96039674863361
  C          -0.56270142124897     -5.10238487086461      1.56349670254764
  C          -0.02338315052664     -4.17671138684884      0.78949137451615
  C          -0.00234450246716     -2.72172518294007      1.11979579223265
  O           1.30273013150074     -2.22088366761472      0.84579198055343
  C          -0.60012921866836     -6.55812396618065      1.21157518883150
  H          -1.04442811593906     -4.86817453996843      2.50140829264653
  H           0.45464238760921     -4.44361020801158     -0.14258516476545
  H          -0.25699852316398     -2.55397374794863      2.17410434582718
  H          -0.74008309131544     -2.19199263445415      0.49583697512992
  H           2.18429464833420      0.44260201574656     -1.72122271301343
  H           1.96437827499161     -1.20602618300066     -1.38171620158875
  F          -1.87768862148160     -7.02407504947103      1.24367674782007
  F          -0.14189999951082     -6.79940678111409     -0.03841904643980
  H          -0.01217072191245     -7.17937038613497      1.90965913175468
