16
Coordinates from ORCA-job NEB E -36.999662777150
  C           0.47219180779008     -0.99196516587651     -0.83195796949664
  C          -0.86800266238400     -0.56930146546583     -0.64016017922928
  Br          0.97335496683084     -2.67487431676612     -0.07486663147736
  H           0.86738437227173     -0.90032550971522     -1.84199425271103
  N          -1.34972671431449      0.42603983506123     -1.57835199956524
  C           1.36661314115356      0.27734431792555      0.15713522142180
  C           0.72298394394868      0.25873231980400      1.40763686865150
  C          -0.68189055481497      0.54624813638750      1.46425486047877
  O          -1.36706546312066     -0.52891488047545      0.55530016536150
  F           2.65051369513544     -0.11854582530231      0.14030762038376
  H           1.24616883074193      1.13188162048284     -0.51065361382304
  H           1.17101877083127     -0.35284422673167      2.17812566096102
  H          -1.00663396514898      1.48235213403124      1.00796282757585
  H          -1.14474123636373      0.38933313658295      2.43245537732242
  O          -2.24269772851624      1.15135158595827     -1.19623637499950
  O          -0.80947120404045      0.47348830409953     -2.66895758085452
