16
Coordinates from ORCA-job NEB_reactant E -37.029226654080
  C           2.16580133163193      0.51816934289896     -0.11777859179870
  C           1.58942045423841      1.71217528643770      0.05048570138216
  Br          2.91124622892582     -0.61491956325987      1.17503395069622
  H           2.21468486700619      0.11548982954391     -1.11901386027848
  N           1.09015831175105      2.36577275525388     -1.18027436529974
  C           4.09638335489397      3.06624330717831      1.48682461214128
  C           3.40389010352974      2.39266424006875      2.38657090569760
  C           1.91009290894493      2.27743500599448      2.36131805966816
  O           1.34160220597039      2.51786681775628      1.08340414975957
  F           5.42991056367345      3.14226710690964      1.54537029141504
  H           3.69595280862994      3.60995922009235      0.64235482723007
  H           3.90838581364718      1.89249598967709      3.19852296253772
  H           1.46326731079855      3.05309679804219      2.99279094126969
  H           1.59632054145973      1.30197682933558      2.74750006641483
  O           0.72903508610663      3.50692569024054     -1.07042761308673
  O           1.09014810879210      1.71198134383023     -2.19688203774870
