16
Coordinates from ORCA-job NEB_product E -37.023236072040
  C           3.06374465872293      0.99925906742187      0.04089815710763
  C           1.61779854936595      1.29820025427231     -0.14999213295658
  Br          3.23882199364995     -0.81057101002451      0.75479292969341
  H           3.60041700818666      1.02505236462787     -0.91234208310500
  N           1.38588342073749      2.50622464668257     -1.10625349270184
  C           3.71854301089004      2.03056967521714      0.99791165884018
  C           3.10578235070434      1.98439350750081      2.36548490781009
  C           2.10555238484573      2.76042548020254      2.73555174415941
  O           0.66131587081013      0.79067827838995      0.31839252677165
  F           5.05443451703446      1.73740574568158      1.06167564445835
  H           3.64188145620065      3.02755381860415      0.54102476907380
  H           3.53434881714240      1.24537891986496      3.02640516171231
  H           1.67904945214319      3.50420573251480      2.08083127828246
  H           1.67177726562257      2.68526168926043      3.71622404444028
  O           0.24219425303648      2.81749508916145     -1.27037406057060
  O           2.37125499090702      3.02406674062207     -1.57513105301555
