20
Coordinates from ORCA-job NEB E -33.646963829200
  C           0.30688067144952     -1.25092726357904      0.22202192092632
  C          -1.01930020878327     -1.17639643281186     -0.23690598865509
  O           0.56517181409389     -1.32987369843488      1.55682931906661
  H           1.02373436387061     -1.83600955945192     -0.34330460100454
  N          -1.27749146896063     -1.37231709581397     -1.59759211290819
  C           0.74724258202409      0.67225379305967     -0.22187222727535
  C          -0.20772185016617      1.36303747214634      0.51817594922175
  C          -1.57360632625168      1.17562167783836      0.19076348240922
  O          -1.85922457544559     -0.45663236612829      0.44009470000749
  C           2.20691826929676      0.81821328683349      0.12845301152441
  H           0.59089618164224      0.56257250701864     -1.29040986844697
  H           0.04567586562044      1.65770160944555      1.52632804936104
  H          -1.83420601293190      1.23557741574837     -0.86150578167554
  H          -2.30944133678845      1.62888376692917      0.84136309174303
  H          -0.14624427124610     -0.87152294745415      2.02891916666209
  H          -2.25906589801092     -1.31946715618993     -1.82656756653438
  H          -0.81147515384134     -2.15892142028595     -2.02035676764399
  F           2.39451341821074      1.07773391049077      1.46055805366755
  H           2.63911219532198      1.66845068393405     -0.41613456486752
  H           2.77763174089576     -0.08797818329441     -0.09885726557793
