20
Coordinates from ORCA-job NEB_product E -33.706196464140
  C           3.27011904904557      1.15494651387727     -1.49088737044860
  C           1.92153648205606      1.08183005225938     -2.22415499199469
  O           3.28260174627156      0.24013022500909     -0.42405236548645
  H           4.04623215349901      0.89325982566902     -2.23095361981657
  N           1.06491960571412      0.19386058241548     -1.70354969359552
  C           3.49042403628557      2.62604868676431     -1.05868581768696
  C           2.56415171040314      2.97300325636690      0.07220103161185
  C           1.49463061503131      3.73134433449479     -0.06796823006687
  O           1.68713344229165      1.78173910350899     -3.18478286443388
  C           4.94852405815698      2.88627043695962     -0.68193249233870
  H           3.25919908672485      3.24396772392613     -1.93151068149454
  H           2.81715163839392      2.53839091757922      1.02999210982927
  H           1.22755918728641      4.15904412112117     -1.02011789728759
  H           0.83969648044834      3.94823755486502      0.75845894852568
  H           4.07830143227397      0.39359839640405      0.10052101490304
  H           0.15333387452992      0.07599342876984     -2.11104663405798
  H           1.34170212029751     -0.33846000527884     -0.89614770877382
  F           5.35586875201930      2.05498721274775      0.34194019316154
  H           5.08340665482483      3.91064453010233     -0.32300916502156
  H           5.62020787444599      2.68896310243846     -1.52341376552765
