20
Coordinates from ORCA-job NEB_reactant E -33.664601888340
  C           1.68386960624203      0.10207852863713     -0.00735826555108
  C           1.53089441285288      0.51240962936785     -1.27107057532272
  O           1.65613338278172      0.92687330048942      1.11217467435316
  H           1.81450271518321     -0.95459006138752      0.17997196230075
  N           1.55824215685810     -0.40046017683392     -2.33257326640767
  C           4.05516326161943      3.99969364271982     -1.15083156700382
  C           3.32994735408814      2.91298284695840     -0.95190214604509
  C           1.83407355373681      2.87370453755488     -0.99396667562131
  O           1.34227902862740      1.77922213528494     -1.74784749461507
  C           5.54832643242347      4.04972295598907     -1.07872617201373
  H           3.59684245536806      4.95381830975437     -1.37204730751940
  H           3.81008073077278      1.96783394456182     -0.73970775928197
  H           1.43305243386840      3.75901391660317     -1.49400688373122
  H           1.44299819167026      2.82822502030411      0.03018627850076
  H           2.27359183368409      0.58234790618598      1.76511853053732
  H           1.15286584573841      0.00290315675565     -3.16567034035724
  H           1.16660271943345     -1.30449071708564     -2.11610648314815
  F           6.09305072040905      2.84353603665599     -0.71836477393915
  H           5.87974220003901      4.78123383719060     -0.33039973173662
  H           5.97944096460330      4.31234125029389     -2.05357200339778
