22
Coordinates from ORCA-job NEB E -33.221114567480
  C           0.13626243341660      0.79852470071037      0.39866369626763
  C          -0.97885174514761      0.48231252254830      1.16857492112615
  O          -0.00479371458327      1.14874046222786     -0.92927261826183
  H           0.95517438189051      1.29793613222420      0.91937591371014
  O          -0.79492372876716      0.45911485289620      2.52997218901564
  C           0.75330189079206     -1.12571642147840      0.09348202730870
  C          -0.38408790571209     -1.62911129460633     -0.51219956802963
  C          -1.57799459376825     -1.71695202534698      0.25280106225244
  O          -1.98216266578066     -0.16368513354080      0.68046039697349
  C           2.02603678608743     -0.96029861416225     -0.68371772457725
  H           0.90166738577172     -1.34305096241796      1.14756433272343
  H          -0.47286189405777     -1.54326874654375     -1.58432216324054
  H          -1.48551921451184     -2.16165450352814      1.24101693418770
  H          -2.47634181515662     -2.02697967926623     -0.26443622353777
  C          -0.02130539261255      2.54221439122307     -1.13637975797882
  H          -0.06968928311820      2.69092131372934     -2.21343888681183
  H           0.88741015523418      3.01230822693333     -0.74047664945635
  H          -0.89418791427793      3.00457158762329     -0.66245022324058
  H          -1.55922401822608      0.02272787773225      2.93019127076806
  H           2.72455234870578     -0.31371667602740     -0.15877078750571
  H           1.81903670248735     -0.54076121714265     -1.66401161327526
  H           2.49850180133438     -1.93417679378733     -0.81262652841781
