16
Coordinates from ORCA-job NEB E -37.615750321480
  C           0.71634698018858     -0.85764112251323     -0.61077335199835
  C          -0.70858116052091     -0.38935426550983     -0.44778694953207
  F           0.90473369748316     -2.01618554249890      0.09562582157033
  H           1.00617577107969     -1.09156081233583     -1.64841280163660
  N          -1.67926808120550     -1.15916285862494     -1.14568126406058
  C           1.49299478517612      0.23582498481942      0.14678803198614
  C           0.54330869793221      0.59315522378675      1.23585440106827
  C          -0.58962623931042      1.45480852854654      0.85528884097292
  O          -1.11885653617037      0.90550797980133     -0.31511570668974
  F           2.68314744372079     -0.21947829368177      0.62031342574224
  H           1.71347314001271      1.08449609171995     -0.51934555477419
  H           0.83970580569400      0.44269233412606      2.25899638103533
  H          -0.30620441903897      2.50505266187329      0.69303001703918
  H          -1.38287121561341      1.44405876155121      1.61302427975475
  O          -2.82270469978078     -0.74367485659309     -1.15877165762879
  O          -1.29177396964690     -2.18853881446695     -1.67303391284884
