16
Coordinates from ORCA-job NEB_reactant E -37.673886976260
  C           1.94132826357902      0.14276828271315     -0.26737169722961
  C           1.50185135848301      1.17279628029560     -0.99845871002397
  F           2.50436538142018      0.26311533723176      0.93944855836092
  H           1.87632783684571     -0.87667865294205     -0.61513035460784
  N           0.90934978750239      0.84926117625651     -2.30430690800346
  C           4.28932738553424      4.06388618461444     -0.28305773540204
  C           3.60738989204000      3.03845808731992      0.19238236742633
  C           2.11550508954451      3.07170707129918      0.33208783665395
  O           1.45988859363402      2.49213683421870     -0.79722090255701
  F           5.61605426325633      4.02029755102536     -0.42333360126547
  H           3.87641223559118      5.01532944627940     -0.58765137247362
  H           4.12155629366865      2.12868410621549      0.46373369778870
  H           1.75217252432306      4.10104660720117      0.33741593056814
  H           1.80185010376397      2.56802658938104      1.25155229026134
  O           0.54399788324118      1.77632128276298     -2.97543745663441
  O           0.83492310757253     -0.32005618387263     -2.60335194286195
