16
Coordinates from ORCA-job NEB_product E -37.668384127980
  C           3.10230170318522      0.82737234296672     -0.65117335868337
  C           1.62533626618414      0.89271658596758     -0.92096403052755
  F           3.30140839445205      0.10338184836961      0.49087091952503
  H           3.63468237874720      0.31499992922364     -1.46447807361720
  N           1.30146307364749      1.34979914480718     -2.36998789493072
  C           3.70049576749702      2.25587315300523     -0.47816814797161
  C           3.15812716690480      2.91568110622793      0.75381988560149
  C           2.16207755043200      3.77993804461647      0.73049359713418
  O           0.71786702623144      0.66916256578400     -0.20105609234439
  F           5.06137775617089      2.11481458802937     -0.38963992675892
  H           3.50679358553455      2.83362890655220     -1.39091235785772
  H           3.63339450164802      2.60762893398994      1.67306259934858
  H           1.68888848319291      4.08848077302696     -0.18825523277058
  H           1.78071619347055      4.21995011460019      1.63419710817304
  O           0.13805049007328      1.39936443496158     -2.64532383919203
  O           2.24271966262845      1.62320752787140     -3.07538515512823
