22
Coordinates from ORCA-job NEB E -60.349871492410
  C          -0.04491121288182     -0.10702151347470      0.77163790003737
  C          -1.54451124934702      0.03396173274393      0.88005694662485
  C           0.58236188493933      1.26249509555609      1.09949448704980
  H           0.28450804020352     -0.79124356118676      1.56746640805333
  N          -2.02009499866835      0.12058986904782      2.35163518830404
  C           0.33662966666051     -0.65756444624275     -0.62392167499614
  C           0.37371650874120      0.44334332355480     -1.65574471203021
  C          -0.52614426278553      0.54265036924067     -2.61480993653130
  O          -2.35595276511553      0.04717664173301      0.02274106976239
  C           1.62871237268115     -1.52665541285107     -0.63337653897046
  H          -0.47866695979956     -1.33178730745883     -0.90882516076230
  H           1.17023665137008      1.16567875027992     -1.56782649841821
  H          -1.33591161739407     -0.15963394680557     -2.71938670337527
  H          -0.49041751502369      1.34514562013197     -3.32965879675000
  F           0.43911606119605      1.54991188743902      2.39771055387109
  F           1.88226808511318      1.31164688202752      0.82794593159160
  F           0.00130704514219      2.26457509113838      0.42901015819972
  O          -2.99209818242803      0.79020869009922      2.54445577310391
  O          -1.38140880363331     -0.52140806011868      3.14574687253876
  Cl          2.82261077500340     -0.94055474444339     -1.81110993200313
  Cl          2.45931027784122     -1.64722333610333      0.94107216513452
  Cl          1.18934019818505     -3.19429162430727     -1.11431350043435
