22
Coordinates from ORCA-job NEB_reactant E -60.362150831610
  C           1.58675854531264     -1.10536720061809     -0.36447500032635
  C           0.87509489533714     -1.53685964810773     -1.40960248268839
  C           2.69921591046142     -0.11048060196552     -0.32565110595657
  H           1.30956215364592     -1.48802310521527      0.60873409958431
  N          -0.20964864334052     -2.52673230597623     -1.08643214892830
  C           3.11949096449013     -2.93704260467301     -3.20039010545823
  C           3.15320483136666     -1.64137972730441     -3.46934545372169
  C           1.95061917565692     -0.74961347135732     -3.41150636365540
  O           0.85778894985370     -1.32956323959175     -2.71137512790624
  C           4.29272412806798     -3.84687354555259     -3.19496514254031
  H           2.19592524469626     -3.43958977024525     -2.94496292276372
  H           4.07199286475947     -1.14778918732108     -3.74593656136448
  H           1.56162164309476     -0.58979430493201     -4.42289891270542
  H           2.21733044218244      0.22594524784043     -2.99559031146936
  F           3.80635639254314     -0.50862993575837     -0.98063324788573
  F           2.36337771452352      1.07763692365109     -0.86967359115348
  F           3.06891032726390      0.13884549482881      0.92961536071397
  O          -0.65033119514671     -3.14125445858589     -2.01637501455025
  O          -0.53251087129154     -2.62915677627105      0.06662763255262
  Cl          4.52215707156397     -4.44947084990133     -1.52100025307245
  Cl          3.96766959845035     -5.24664371842097     -4.25412207140499
  Cl          5.79488985650844     -3.08106321452248     -3.71924127529957
