24
Coordinates from ORCA-job NEB E -44.881830857920
  C           0.62119648368891      0.51279868949492     -0.63729418071543
  C          -0.65291376402561      0.83984745227240     -0.11013493587172
  C           0.80787751390641      0.50300012752002     -2.13287437344458
  H           1.45470426876379      1.04449354990484     -0.18147423684466
  C          -0.77084486356640      1.73804701408281      1.09702005090664
  C           0.73945326312310     -1.29040911196663      0.00418127810817
  C          -0.37321082931838     -1.91932091208603     -0.58123347010991
  C          -1.65724895643313     -1.40549745982985     -0.22551789202738
  O          -1.70273603952222      0.17062180453634     -0.48768076678964
  C           2.03491851904842     -1.83275730507197     -0.24492205847557
  H           0.65323512642197     -1.03221567819579      1.05769350112459
  H          -0.24785975871078     -2.44294240193226     -1.51505617528187
  H          -1.89118560021171     -1.41117250601139      0.83748849428312
  H          -2.48770147831431     -1.77097432016272     -0.81939359492364
  Cl         -0.49014763753401     -0.24082281745338     -3.06107484250679
  Cl          0.86836587025728      2.24140843484389     -2.62736070256419
  Cl          2.35825061227001     -0.21872162828106     -2.63799331177539
  C          -0.16176025742801      1.15856075542788      2.37795040599798
  H          -1.83327571210414      1.92635265520077      1.25830387795446
  H          -0.28326377693825      2.68856786915607      0.87164907713022
  H          -0.64516729837171      0.22349902659853      2.65273747356735
  H          -0.30561562481498      1.86175274567363      3.19421246481721
  H           0.90656449310874      0.98894353988974      2.26470322486281
  N           3.05836544670502     -2.33305952361076     -0.35392930742176
