24
Coordinates from ORCA-job NEB_reactant E -44.921485053150
  C           1.84320846808349     -0.21397802123088      0.35647323312452
  C           1.05762352014434     -0.56289399015713      1.38923181988693
  C           2.09671848952537     -0.82037510096350     -0.96857483583527
  H           2.38112955635902      0.71189604157044      0.49132491730804
  C           1.00318584114074      0.35631573661306      2.58791140089650
  C           1.78369725548769     -4.91984291713326      1.24420302202402
  C           1.58964634625844     -3.61892103215105      1.45426535450438
  C           0.38840919162549     -2.86809452814620      0.97096457117070
  O           0.25394288975680     -1.61463931350065      1.61416567792767
  C           2.93196958914853     -5.58908469445034      1.70668148538279
  H           1.07313822538165     -5.52558776962848      0.69709373451724
  H           2.31947855246732     -3.03950786131510      2.00403711088220
  H          -0.52742769160846     -3.40642555720510      1.23859891817266
  H           0.41065304981288     -2.76671414574989     -0.11863236045938
  Cl          3.01889962288659     -2.37254201099561     -0.90113547956343
  Cl          0.58497600815281     -1.12118351434309     -1.89458391613487
  Cl          3.07378747857693      0.29677948361648     -1.95284128572146
  C           2.02508235924162     -0.08364127170394      3.63739397049753
  H           0.00129339736138      0.29376390667740      3.01332076642787
  H           1.19696877733729      1.38435854178425      2.28768630784607
  H           1.81889000239485     -1.09927065944675      3.96596707345889
  H           1.97755424668863      0.57296544276583      4.50185184341085
  H           3.03165848120223     -0.04572989780426      3.22755814558517
  N           3.86371634257439     -6.14124686710222      2.08333852469037
