24
Coordinates from ORCA-job NEB_product E -44.927822308290
  C           2.15325356823084     -1.42248299205202      0.98024133433400
  C           0.87045364330833     -0.74215850301133      1.50357302743035
  C           2.37558480162695     -1.04250101428883     -0.48064416589474
  H           3.01667583709308     -1.03684112983151      1.53280700472676
  C           1.10846294758469      0.35980636427037      2.50204727918827
  C           2.06052484985493     -2.95317519360335      1.24545526515490
  C           1.28047064098164     -3.74600416491944      0.22912260703087
  C           0.06898408326958     -4.21321518444668      0.45969548063786
  O          -0.21938906581405     -1.10997673251334      1.16519731578430
  C           3.39270539465756     -3.50862187700544      1.36534656985877
  H           1.57774616322416     -3.07149616972551      2.22511050887587
  H           1.78970587493933     -3.94375310644334     -0.70283939684720
  H          -0.45152889165660     -4.02629911660390      1.38420801542741
  H          -0.46250153474038     -4.78205829456606     -0.28274771538560
  Cl          0.96890279952388     -1.34089684352236     -1.51385370662244
  Cl          2.73432676717417      0.70934413672149     -0.55449071800980
  Cl          3.78609428036530     -1.90620765803895     -1.15546286075739
  C           1.53091788720959     -0.22609508128545      3.85300342981735
  H           0.17953233746429      0.91825516729636      2.62408209217869
  H           1.88494954817799      1.02923801422150      2.13000610332899
  H           0.76429051209098     -0.89922157266036      4.22967552800471
  H           1.66355444264326      0.57750460551378      4.57213529328888
  H           2.46835165168225     -0.77219172736820      3.77630966135298
  N           4.43093146110824     -3.96655192613741      1.49762204709621
