24
Coordinates from ORCA-job NEB E -35.885325997760
  C          -0.62064555353148      0.13182358886948     -0.79092653481311
  C          -0.84220182714796      0.82631910474273      0.40660453577633
  Br         -1.90295116110320     -1.20085270629046     -1.28584176899382
  H          -0.27397074764780      0.66311581143486     -1.66812452467467
  C          -0.24632453902775      2.21257540379081      0.53923421878603
  C           1.00595871659582     -0.89310005813633     -0.22056261031820
  C           0.47499370956544     -1.60232595027912      0.86990435350133
  C           0.08409162317680     -0.89483768323353      2.00388809469165
  O          -1.23879584676321      0.18952770626856      1.43468540924633
  O           1.50088004357055     -1.45278818114953     -1.35197932039865
  H           1.59245443781979     -0.00296096506853      0.00065437310725
  H           0.01686243852614     -2.56266034376237      0.68526202232974
  H           0.71225624263499     -0.08838012326679      2.35793841285154
  H          -0.44185847289380     -1.42603519129011      2.78173913053553
  C          -1.17534701355665      3.25446504501899     -0.08446159160080
  H           0.72825561628371      2.25134259022931      0.04445729646543
  H          -0.11428063050920      2.42947928197105      1.60073238249610
  H          -1.31429388017625      3.05996735987075     -1.14567536871053
  H          -0.75555630284739      4.25072953233072      0.03238506877647
  H          -2.14843210007258      3.22937410764442      0.40017615899779
  C           1.26990375894388     -2.83004636440245     -1.59188787195425
  H           1.75924182425612     -3.04072311040199     -2.54079108644909
  H           0.20795080329112     -3.06536592645535     -1.67439437001071
  H           1.72180886061291     -3.43864292843510     -0.80301640963770
