24
Coordinates from ORCA-job NEB_reactant E -35.922547008750
  C           0.88042962857451      0.35690680902138      0.02394685206361
  C           1.03680318028683      0.28029691202538      1.34491290240246
  Br          0.13284350383489     -1.06992843161022     -0.96269320040288
  H           1.12777422645614      1.22336774637604     -0.56111799802848
  C           1.67018084611096      1.42218307511997      2.10011763918242
  C           3.64486139665277     -1.93752528164063      3.27075401102694
  C           2.47816347232949     -2.08550912430338      2.65541733504286
  C           1.23089710408308     -1.37637870254337      3.08924231189558
  O           0.54058578579128     -0.80998670892798      1.98771246997565
  O           4.82959484454120     -2.51631044653139      2.97927246825334
  H           3.75300773120733     -1.30449997243765      4.14338360549305
  H           2.35609637836649     -2.71755999495947      1.78977203142522
  H           1.45618329612390     -0.63032105098350      3.85998386435437
  H           0.50997719657279     -2.09352930436650      3.49755767504028
  C           3.19385652101461      1.42855206743529      1.96690478342798
  H           1.38646456390083      1.36604465956439      3.15192365474887
  H           1.27508348970532      2.35836476687541      1.70045568706024
  H           3.62229508059181      0.50437199260048      2.34642178006818
  H           3.61317223384344      2.26182178527318      2.52568929026246
  H           3.47828234767861      1.53425220449145      0.92284646715449
  C           4.87289849713863     -3.38870317725978      1.87256051189701
  H           5.90074787384676     -3.73983302265128      1.80675201423135
  H           4.60295506910186     -2.86888311751252      0.94831467296294
  H           4.20174573224648     -4.24079368305529      2.01546917046204
