24
Coordinates from ORCA-job NEB_product E -35.922442157700
  C           2.46760686631800     -0.66569681640392      1.60447815360159
  C           1.72816842810910      0.47142779830696      2.29684319733288
  Br          1.07425497113851     -1.52348426885228      0.50854201886763
  H           3.19468646226605     -0.27404667997637      0.88831641695659
  C           1.40797894800259      1.64979366270660      1.41062023105953
  C           3.17516330779294     -1.62225224496450      2.58892586977379
  C           2.27203987062097     -2.73000874165255      3.05631944756980
  C           1.67706256280779     -2.72740404657786      4.23325889287913
  O           1.45495214611082      0.43127567556210      3.46698675045169
  O           4.42672119916178     -2.03709162003555      2.08083306725584
  H           3.44661137548206     -1.00498388618018      3.45620653156298
  H           2.10670693276230     -3.53492787832965      2.35388823418364
  H           1.81600931873358     -1.92431485748049      4.93719406471276
  H           1.01064327875819     -3.52010363924969      4.52746713038056
  C           2.56362286751393      2.65191853954818      1.50121385104748
  H           0.49406277094476      2.12190275047222      1.77430597795321
  H           1.26474675644212      1.33931968030447      0.37524434873610
  H           2.70627267686724      2.96951919241522      2.53129038668814
  H           2.34059384329669      3.52606003742710      0.89518282254160
  H           3.49226186701430      2.21144262105358      1.14369732054048
  C           4.42290963031678     -3.02304092972820      1.06891348535723
  H           5.44388137973057     -3.05288193979812      0.69170649016451
  H           3.74667086722507     -2.77485512170501      0.24586740215823
  H           4.16397167258386     -4.00976728686206      1.46439790822462
