17
Coordinates from ORCA-job NEB_product E -42.738038935540
  C           1.98064809371402      0.85532988193847     -2.31064646275056
  C           0.58121554322710      0.45852402829917     -2.72933580571523
  Cl          1.90800847045036      0.76077297463299     -0.52032428285321
  H           2.73208411477706      0.13439239357280     -2.63903359366389
  Cl          0.42294865235141     -1.26642404315364     -2.93696178246583
  C           2.32850589813801      2.28526374696162     -2.74054046252196
  C           3.50594544787128      2.83136683163979     -1.97685787466314
  C           3.47171642305232      3.96736352632241     -1.30913059873166
  O          -0.34208653028170      1.18961590938314     -2.85400212473575
  C           2.67010694634972      2.27621972199249     -4.23217848406884
  H           1.45145012150406      2.92854070419717     -2.60965616659546
  H           4.40100247493063      2.22718673092203     -2.02003439117805
  H           2.58413157529870      4.57593485704435     -1.26327913588928
  H           4.33333878730857      4.33154333311297     -0.77857944890004
  F           3.76377155836128      1.54335703650193     -4.49207187444064
  F           1.68873815843569      1.76041964628449     -4.98587902484075
  F           2.90817426451148      3.50619272034782     -4.69358848598572
