21
Coordinates from ORCA-job R E -27.195471682160
  C          -1.44453585525521      0.12421526135125     -2.76582808102408
  C          -0.01841293057013     -2.41520159357828     -1.91340276087398
  C          -1.33539840195491     -2.23191635550855     -1.96541223441459
  C          -1.99746599287483     -0.97490224592379     -2.23022879227590
  C          -0.54716366591666      1.59175138896421      0.16042761818113
  C           0.02959205810491      0.46641263215406      0.52728277014241
  H          -1.99314578715697     -3.06974341461354     -1.77045171175815
  H          -3.05002507583741     -0.92342900116912     -1.97746571057673
  C          -2.22718130292069      1.35524486739462     -2.95504383937967
  H           0.40765336784975     -3.38037646837575     -1.69948257192965
  H          -0.40705711346728      0.15309391292952     -3.06211405613428
  H           0.67773636693825     -1.60762055774283     -2.06293234752838
  H          -1.58639660567916      1.63239068263501     -0.12079236540879
  H          -0.50837056839900     -0.46603275655159      0.56556855675658
  H          -0.01302783301725      2.52625174542285      0.12584244911913
  H           1.07029936895984      0.42218881391571      0.80518154118567
  O          -3.40307254284237      1.44179106311492     -2.67453241210210
  C          -1.43650239826992      2.51191038567597     -3.51944725909467
  H          -0.60462202421293      2.73935039598235     -2.85570335777353
  H          -2.07163277152689      3.38880135586217     -3.61978832652279
  H          -1.03303029195114      2.24058988806081     -4.49271710858763
