26
Coordinates from ORCA-job NEB E -47.745239395050
  C          -0.28813584944077      0.72999108613910      0.55874138055036
  C           1.09903811734581      0.54570780404163      0.67508315966517
  C          -1.27857601978316      0.12988224092363      1.54212415987274
  H          -0.56755013679967      1.75598911898418      0.33043992096347
  C           1.99315361098513      1.67331279259012      0.18331714266490
  C          -0.62902580266002     -0.28814556547617     -1.11391850014078
  C           0.57014567804970     -0.89015048276033     -1.50938671429195
  C           1.24356106678019     -1.65892189457398     -0.52457565643308
  O           1.62917805531136     -0.63276425839616      0.70001861820951
  C          -1.30257503259948      0.65098250666440     -2.07367226089996
  H          -1.34678687506149     -0.93909851433470     -0.63005449516556
  H           1.17129599123673     -0.39074046690556     -2.25787818153167
  H           2.21668446874159     -2.05045482328879     -0.79615137627815
  H           0.64239907587914     -2.37920469341938      0.01995254971021
  C          -0.98778450768635     -1.27248429628195      2.05977252492138
  H          -2.28225866562553      0.17150165565589      1.11379790307194
  H          -1.27532540621550      0.81322951582139      2.39798300661891
  H          -1.14167333615243     -2.02836138020919      1.29344753820495
  H          -1.66185204146479     -1.49632635461118      2.88343852873107
  H           0.03353205031736     -1.34476577493745      2.42148964947432
  F           3.28603331215478      1.48364963581118      0.58646355523008
  H           1.67180793854598      2.64787426155169      0.56166924832047
  H           2.00497938134206      1.68000871310606     -0.91760920632979
  Cl         -1.78759639238887     -0.25263770811746     -3.54510124815502
  Cl         -2.77600102829147      1.36285450788398     -1.38138605039034
  Cl         -0.23666765252028      1.97907237413908     -2.57800519659320
