16
Coordinates from ORCA-job NEB E -35.756722141180
  C           0.19792301628445      1.97061437110946      1.47835663536824
  C          -0.50081431899518      0.86875766697005      1.07797913565899
  I           1.90539807349827      2.53849400498776      0.44727809967018
  H          -0.03682414853692      2.54882807675492      2.35760886631160
  N          -1.70038358226418      0.58789515481745      1.95199254752136
  C           1.35788400121130     -1.62361301594848     -0.91648606171521
  C           0.73637707203175     -0.88713033743256     -1.89380761722728
  C          -0.63320692677105     -0.88361547127432     -1.92646562446697
  O          -0.21978610043836     -0.02091120791523      0.25281425282809
  I           3.40423192267023     -1.75686168258823     -0.73019621683057
  H           0.79987868439910     -2.20179169787837     -0.20432713929774
  H           1.32236989129326     -0.24333888363741     -2.53482931480556
  H          -1.18805929775964     -1.57447745045482     -1.31358747702918
  H          -1.20339633483360     -0.27737316868595     -2.60982781500109
  O          -1.87194984153680     -0.57338018214138      2.24330864079037
  O          -2.36964211025265      1.52790382331710      2.32018908822477
