16
Coordinates from ORCA-job NEB_product E -35.838006155280
  C           2.87485772942792     -1.82371222844177      0.29029884775714
  C           1.38987412681217     -1.81905158101959      0.33496498404288
  I           3.24229834863946      0.31605740015188      0.09814874032215
  H           3.30356758862337     -2.09318573474005      1.25763240954284
  N           0.83794463611151     -1.43402777226559      1.73693341456644
  C           3.42727957820439     -2.66178180791584     -0.84453484753482
  C           2.94984566196434     -2.27698284436631     -2.19716462459555
  C           2.44708509301616     -3.13796161270544     -3.06333243415306
  O           0.59374197063866     -2.03407206542680     -0.51561278328945
  I           5.61518290525146     -2.57383574862454     -0.78865284372529
  H           3.18814942511117     -3.70830715936054     -0.63719925430143
  H           3.05921548523739     -1.23134591808841     -2.45396365234821
  H           2.34050097550644     -4.18566275630154     -2.83422230663265
  H           2.11248851779132     -2.82305541718394     -4.03536823727433
  O          -0.35403560616406     -1.36107685357000      1.81243463405528
  O           1.64850356382829     -1.27089790014153      2.61633795356805
