16
Coordinates from ORCA-job NEB_reactant E -35.835527389040
  C           2.16832924349237     -0.50215150553130      0.17478426204232
  C           1.43788849845027     -1.61311915392943      0.08305286565946
  I           3.30134744219357      0.49239338205708     -1.26709171032486
  H           2.18244314599915     -0.00225245698044      1.13127266012933
  N           0.75191127143686     -2.03472157700206      1.33124390488829
  C           3.82615945396225     -3.44987405769208     -0.89153736570574
  C           3.30626335314339     -2.86670256338977     -1.95526435896322
  C           1.84487705285818     -2.54843040489224     -2.09153386144928
  O           1.14659617402670     -2.50934208701112     -0.86115949342317
  I           5.87180142268346     -3.87363038145008     -0.70523850786945
  H           3.24646841296602     -3.75630504991500     -0.03638500279420
  H           3.91293877732702     -2.58964301043585     -2.80426143892455
  H           1.34374137372984     -3.34606121190204     -2.65153706275027
  H           1.71126758479518     -1.61189478266678     -2.64424470989143
  O           0.26170227146440     -3.13227245069922      1.32434464186686
  O           0.74456452147135     -1.25579268855966      2.25445517750989
