18
Coordinates from ORCA-job NEB E -43.223111812580
  C           0.46604300130152      0.01400437832488      1.22835479915247
  C          -0.94398958233851     -0.12547608153903      1.14734087182066
  Br          1.12831690611760      1.71087564612991      1.80956984159615
  H           1.00338359617591     -0.80356002982456      1.70693691607454
  N          -1.44543945999156     -1.49151401516523      1.16030190006539
  C           0.84566090109503     -0.11586328647200     -0.58157649201354
  C           0.02337954099079      0.85119122227272     -1.18751007907341
  C          -1.39794052050742      0.72485175732260     -1.05404034471084
  O          -1.64741533229970      0.74130004972795      0.49527903766932
  N           2.29551747691299      0.12115791076091     -0.70003052356831
  H           0.64025908796935     -1.17659297100193     -0.72116572715021
  H           0.46103191927282      1.82536190719527     -1.36677175357668
  H          -1.83852982784409     -0.22854918008097     -1.34970990558091
  H          -1.97833321923315      1.56678259424281     -1.41565885872875
  O          -2.49988327566893     -1.68540972298463      0.59642374373442
  O          -0.76185528383216     -2.33065458683580      1.71334523267208
  O           2.66377439198747      1.26531079730331     -0.72384048254280
  O           2.98601967989205     -0.86321638937623     -0.75724817583956
