18
Coordinates from ORCA-job NEB_reactant E -43.257087323070
  C           2.23664048575115     -0.38778468660077     -0.29263146599065
  C           1.51063860439548     -1.05468578392751     -1.19379372929307
  Br          3.06341069637054      1.29154918956391     -0.45238457387500
  H           2.38565783371091     -0.84829172804218      0.67364283510851
  N           0.99169100011986     -2.37644808357347     -0.76512467313601
  C           3.76175896104046     -0.63429266319389     -3.49461620159732
  C           2.90783994670747      0.37902008962823     -3.56074456857417
  C           1.47399271677543      0.32873850558766     -3.15561641654767
  O           1.10506397415780     -0.83839878433970     -2.44845718248557
  N           5.12652777879955     -0.47516228144087     -3.91836526954023
  H           3.53667240805764     -1.62897501786503     -3.14072562337001
  H           3.25438822040655      1.32967291847478     -3.94674000901779
  H           0.85448729033675      0.30149795916004     -4.06023292802805
  H           1.20549119064117      1.23113080962386     -2.59436959573282
  O           0.39880803238543     -3.00949179376343     -1.59534000432653
  O           1.20670724200905     -2.71184447792499      0.37465737457872
  O           5.46243619364629      0.59306371315046     -4.37645422717074
  O           5.84548742468845     -1.43859788451712     -3.78010374100160
