23
Coordinates from ORCA-job NEB_product E -41.039108783980
  C           0.81145578529757      0.23242911139548     -1.60885925962455
  C           1.18990644691124     -0.91012524089347     -0.67957035423697
  O           1.94574619275992      0.86041022043537     -2.13856849067206
  H           0.19357226607530      0.95570838430228     -1.05061990762874
  C           0.08219681651906     -1.38687948437915      0.29352354688291
  C          -0.03125607413717     -0.30152054115738     -2.81254506132340
  C          -0.14139792634976     -1.80868571757217     -2.77757281992297
  C           0.72454556375851     -2.62375804481083     -3.34953426182175
  O           2.27716825045265     -1.40787248275622     -0.60995810747847
  N          -1.30540139684361      0.39100409054213     -2.84208296830782
  H           0.53817564677984      0.00128086760413     -3.69768387161799
  H          -1.00607237007850     -2.20008702347662     -2.25548800436235
  H           1.58624632412341     -2.24826952622595     -3.87577508868397
  H           0.61830295428758     -3.69350795683241     -3.29585005108619
  C           2.67223230365153      1.63999958596973     -1.21661120790917
  H           3.45530305508312      2.12870983554108     -1.79186465819256
  H           3.12943561295965      1.02703366273182     -0.43369470391041
  H           2.03017546626702      2.39952685196601     -0.75350778535602
  F          -1.12264587045163     -0.82116713574005      0.04469613616127
  F          -0.09423552992471     -2.72105240456968      0.20480557984670
  H           0.36045376684911     -1.14842230621599      1.33414442921604
  H          -1.90041313192479      0.07615927193994     -2.08206392722984
  H          -1.78519415206536      0.19818598220196     -3.71381916274170
