22
Coordinates from ORCA-job NEB_reactant E -39.893172358770
  C           2.06685245100738     -0.12895319938707     -0.07230289037902
  C           2.00464433928068     -1.46091452866260      0.02509001873150
  N           1.91057808970079      0.67858688452647     -1.22357954012936
  H           2.20000588825069      0.38455556574718      0.86760008101161
  O           2.20454924682753     -2.00183275494188      1.26331322033560
  C           4.18350775347594     -1.77666678777696     -2.30528727740473
  C           2.99562016887438     -1.62839954312124     -2.88921718613490
  C           1.69567130424630     -2.03340416908887     -2.27971759171544
  O           1.78479687205197     -2.42181841123523     -0.93537502601141
  N           5.38103572666636     -1.34296880709688     -2.95014126966487
  H           4.34477265481882     -2.22577045341307     -1.33777620666294
  H           2.94478570827723     -1.18737660143566     -3.87721284807694
  H           1.31539631784816     -2.91709116457093     -2.80720388232329
  H           0.96608135391448     -1.22298461902482     -2.40449828772563
  H           2.53792900937524      0.43374773084637     -1.98408161381979
  H           2.04810664325698      1.65213885058284     -0.98641805322960
  C           1.81183845129655     -3.34696583497756      1.45275707718084
  H           1.96875689014247     -3.54493677872075      2.51104864688825
  H           2.42137886101524     -4.02927236425932      0.85482213682934
  H           0.75912997791674     -3.49352734352563      1.19897453030858
  O           5.28200625001597     -0.73363242961751     -3.99735545055557
  O           6.42785604174011     -1.61521324084686     -2.40033858745222
