22
Coordinates from ORCA-job NEB_product E -39.928231268060
  C           3.25163329199980     -0.55877216968706     -0.62903738482434
  C           2.15637954360767     -1.35656387654014      0.09104383321330
  N           2.79345188974200      0.73647200060328     -1.06982309735782
  H           4.11064329048082     -0.44468611491630      0.04195399125931
  O           2.61565272439230     -2.50731433619818      0.57489100810304
  C           3.72354604668088     -1.39858697083981     -1.84646473734049
  C           2.63632332930969     -1.59321591234387     -2.85197465999514
  C           2.02597800240301     -2.74799880625781     -3.04017283083997
  O           1.02036468822350     -0.97698785996877      0.18603620214430
  N           4.89313985655701     -0.68041557569746     -2.43908860444663
  H           4.10238640998788     -2.35512232904602     -1.47072091338586
  H           2.36772338702437     -0.71297173781229     -3.41628976993963
  H           2.29526924774057     -3.63337144812473     -2.48615349588446
  H           1.22935732426605     -2.85601202804071     -3.75454704255083
  H           1.82500540947720      0.67611157779260     -1.37050602474489
  H           2.83722648283330      1.41568890435602     -0.32068973461018
  C           1.66608074920834     -3.33368509827998      1.24265869726127
  H           2.20427125540122     -4.22601264257205      1.55006281741300
  H           0.84799787624649     -3.58753104951757      0.56621981822557
  H           1.25750276800612     -2.81301559120387      2.11023541174308
  O           4.83148620444289     -0.34406768595662     -3.59014939292701
  O           5.83308022196887     -0.50954124974867     -1.70328409051564
