20
Coordinates from ORCA-job NEB E -36.089509241480
  C           0.06403995797783      1.23075365194089      0.37005781304358
  C          -1.10452419147660      0.53345429768427      0.74456200856581
  N           0.12289508817768      1.83626983330851     -0.84889419385134
  H           0.72863103495878      1.61902431479095      1.13071673172122
  N          -1.25975758708694      0.13210848519762      2.06144133328859
  C           0.98954290265236     -0.77040375383180     -0.04693979647574
  C           0.15408050296199     -1.16063458180396     -1.08532447218563
  C          -1.16155761551423     -1.51788090365401     -0.77929881640633
  O          -1.85022098761273      0.01640319159407     -0.15361652669626
  N           2.23655828052121     -0.17602598456023     -0.30264737371697
  H           0.90520715788067     -1.18896561574385      0.94575939115395
  H           0.41832739269045     -0.85725325541613     -2.08815069376322
  H          -1.34016364240057     -2.08494264345619      0.12401470113956
  H          -1.84870603465493     -1.72481346083528     -1.58472599212514
  H           1.04829243887951      1.97224804473856     -1.24472204544644
  H          -0.54361257364574      1.45465518364955     -1.51056607727744
  H          -2.17061936196941     -0.23631297291129      2.28610042368452
  H          -0.85025277903396      0.71327739066500      2.77321046257089
  O           3.07466782274443     -0.19326262114617      0.58402419090980
  O           2.38717219395018      0.40230139978951     -1.37500106813340
