20
Coordinates from ORCA-job NEB_reactant E -36.093586881110
  C           1.08942564285238      0.07463474445763      0.13539337094843
  C           1.68505470499493     -1.09584265863594      0.42954121303459
  N           0.02848544706159      0.19399164230860     -0.75237949124368
  H           1.33019904211673      0.96235076397428      0.69827767796012
  N           2.59835362670525     -1.25984305461328      1.46967576406197
  C           3.92554727785687     -4.26506958581150     -0.36658798138317
  C           3.59452854950394     -3.02875809867978     -0.74874793328111
  C           2.25160095921118     -2.65670765145322     -1.27994578689087
  O           1.34446527856978     -2.24570991428524     -0.24456129142568
  N           5.20493241121973     -4.54494085475443      0.18594726504721
  H           3.28174633837253     -5.12670127723118     -0.44816169408981
  H           4.33393910372837     -2.24311743917737     -0.64493868068576
  H           1.75978752438445     -3.52148271261793     -1.73010456042611
  H           2.35088212710238     -1.85560246769025     -2.02424966766127
  H          -0.01221676718122      1.05848267751579     -1.26938161186774
  H          -0.11902967449619     -0.63071254968656     -1.31642722296623
  H           3.22540975532749     -2.04418549474892      1.36175936023365
  H           3.05641415275052     -0.41519755402768      1.77433960797161
  O           5.94770962105133     -3.60633620100244      0.42193874098728
  O           5.47486487886795     -5.71305231384052      0.39341292167658
