20
Coordinates from ORCA-job NEB_product E -36.128850170990
  C           2.94255742842868     -1.26523844512433      0.16907448734292
  C           1.58673539559271     -1.29076478846585      0.90443241168205
  N           2.92394211652165     -0.39653564154656     -0.98246509021724
  H           3.73311682660007     -0.95149611062751      0.86101380569895
  N           1.63963695149586     -1.77383658309788      2.16301143073633
  C           3.25748752039661     -2.72310941583615     -0.28000716129391
  C           2.38791092722852     -3.16179809673726     -1.41124952047672
  C           1.38577365787607     -4.00728663353760     -1.26475873782439
  O           0.56860818595543     -0.91987615538236      0.37074517566053
  N           4.70206736041218     -2.74552350943281     -0.64818046817581
  H           3.15459797577096     -3.38476573453774      0.58673711231477
  H           2.62826694872222     -2.72435822661692     -2.36810454347706
  H           1.13998451346697     -4.44614901730861     -0.31092857442973
  H           0.76056192715333     -4.28815162296582     -2.09312744347492
  H           3.08279068591710      0.56732587998905     -0.71646740336861
  H           2.00657378923188     -0.44751881502907     -1.41906532490288
  H           0.79330601523674     -1.79870786356491      2.70877427501302
  H           2.50780051296055     -1.99813735920013      2.61603566763623
  O           5.01039820460716     -2.92514700519645     -1.79371256442487
  O           5.46998305642533     -2.57372485578109      0.27094246598132
