21
Coordinates from ORCA-job NEB E -45.115290691240
  C           0.85944542137986     -1.01400183060460      0.13622026115979
  C          -0.35685651308844     -1.62278749321088     -0.13459470831020
  I           1.78875922014804     -1.55264791067930      1.95665864310387
  H           1.57337874380878     -0.85483012832098     -0.65662180146872
  C          -0.80608753532465     -1.64855130018690     -1.60841762056280
  C           0.12457079665685      0.95780189263579      0.54411624566624
  C          -1.25396906741953      0.75342718219224      0.71179681297451
  C          -1.72974992821061     -0.17395433819626      1.61031877677835
  O          -1.24007450432702     -1.81833328333327      0.73435198867082
  O           0.51811379164799      1.70300004121900     -0.49585693340906
  H           0.75648345423535      0.99747761057908      1.42765477351589
  H          -1.87888025408590      1.04828162822263     -0.12123973841436
  H          -2.78639775047765     -0.37406726417410      1.66282270861411
  H          -1.16515060518719     -0.41338529016226      2.49797782346117
  F           0.08750680510285     -1.08978272428007     -2.44383953793986
  F          -0.99255497293479     -2.90307807817827     -2.03882671010442
  F          -1.95972364269841     -0.99390471954569     -1.78820105441859
  C           1.85807892786826      2.15577668288378     -0.48850578208193
  H           2.56174397481380      1.31931519692767     -0.52309371500266
  H           2.06345605006104      2.76032180663526      0.39945299725034
  H           1.97790758803137      2.76392231957715     -1.38217342948247
