21
Coordinates from ORCA-job NEB_product E -45.149679956520
  C           2.84904720585471      2.21425185184004     -0.42674217746427
  C           1.50834013099762      2.22224831331778     -1.09249459692992
  I           2.65730740242016      0.73005424405833      1.11992274305078
  H           3.61938505609339      1.85407971173745     -1.10974912487886
  C           1.49209944539606      1.36775467780818     -2.39390144521591
  C           3.26530173834280      3.58520361663654      0.13195148185983
  C           2.29754164979751      4.13371203169819      1.14389258485391
  C           2.53066542860856      4.12882722885864      2.44287694622078
  O           0.51867594466701      2.78039598902215     -0.72770810042633
  O           3.36787290409555      4.39341395676275     -1.02430637230522
  H           4.25972137791515      3.47159920335454      0.60048541984566
  H           1.38339433051474      4.53287764772647      0.73011883305694
  H           1.81278317521039      4.51327854022146      3.14571106784748
  H           3.44258195565283      3.73039914854098      2.85866163232775
  F           0.27150071162536      1.24389851458725     -2.90031639252518
  F           2.27221151337336      1.92671784535554     -3.33037432144010
  F           1.97308043723490      0.13269150578239     -2.18187227871750
  C           3.97994082831859      5.64036762513368     -0.78831880960271
  H           5.00041689959254      5.50938167525189     -0.40964283757976
  H           3.40819488734733      6.23839085454320     -0.07172719942382
  H           4.00833697694145      6.14645581776254     -1.75026705255353
