21
Coordinates from ORCA-job NEB_reactant E -45.155542974930
  C           1.38489801221219      0.23316166438487      0.16817816346595
  C           1.63500643006023      1.20764046662245     -0.70202716713848
  I           1.62765161422346      0.18569211960514      2.24998752201187
  H           0.99383597286203     -0.70006383615021     -0.19620505930250
  C           1.35678977541987      0.93075288558571     -2.17777563182522
  C           4.19925278322620      4.82843395729758      0.46802613803674
  C           2.93610416477861      4.44904770520266      0.30140229950069
  C           2.47453959507520      3.06354619189326      0.61219390619003
  O           2.10830132821540      2.45857715889021     -0.63223680566606
  O           4.75241056475706      6.02822533813562      0.22667521741355
  H           4.94437520330385      4.15312828904340      0.86931160826492
  H           2.18451841485054      5.10376609134141     -0.10791513879094
  H           1.59822650219601      3.08903481481000      1.27040519538640
  H           3.27697380764364      2.48931345230766      1.08460604006809
  F           0.53464986965161      1.84727804527463     -2.69797923694763
  F           2.48336183502924      0.96083057828797     -2.89867580546160
  F           0.79190312929465     -0.26169243990298     -2.40148934514859
  C           3.92892028585444      7.03476022989639     -0.32040758031834
  H           4.56867154932825      7.90426270631075     -0.45791900002392
  H           3.10967220201646      7.28585608721581      0.35971273141970
  H           3.51683696000105      6.72534849394772     -1.28506805113467
