18
Coordinates from ORCA-job NEB E -33.493618973430
  C          -0.86805707865057     -0.35527537157225     -0.12344421768538
  C           0.28445618990924     -0.98828923200347      0.35283809277768
  I          -1.09058612992369     -0.56727894295596     -2.49221164701607
  H          -1.79793029421382     -0.82693483081104      0.17001602983624
  C           0.25441450048726     -2.27978905885363      1.10200428322479
  C          -0.87083171628080      1.20205493611534      0.15012916076934
  C           0.45148841140876      1.71154128687021     -0.25822131334317
  C           1.61061661894962      0.81105065987078     -0.37467230684975
  O           1.51865619124013     -0.46173474904384      0.19312259908459
  O          -1.94368034713317      1.87609758046701     -0.42275925579716
  H          -1.05731056135952      1.28543118054451      1.23039169255539
  H           0.45640339788078      2.55220935435223     -0.93611499911194
  H           2.51097869611880      1.25465759308071      0.06792244830956
  H           1.82882749801398      0.67956310552301     -1.44895741637005
  F          -0.51473651537426     -2.16372943129208      2.24364756093569
  H           1.26460761452310     -2.55459880595272      1.41579707412024
  H          -0.20104438097989     -3.08631316592633      0.51441909583222
  H          -1.83627209461597      1.91133789158753     -1.38390688127221
