18
Coordinates from ORCA-job NEB_product E -33.542899363710
  C           1.88627856441323      1.37855789278946     -1.29649887513313
  C           0.66301149173824      1.00733533630278     -2.11449134641492
  I           1.32931640959917      1.46327246793559      0.77541285217398
  H           2.68487017995034      0.64428334568373     -1.39864293592686
  C           1.00422952463965      0.12827469177391     -3.30099239167797
  C           2.39574762395604      2.75212458628461     -1.76702789391612
  C           3.59079484808990      3.19032568952497     -0.96869770652301
  C           3.60884356014934      4.26160916558643     -0.19903366365155
  O          -0.43479222699200      1.40689728845126     -1.86009918250017
  O           2.73153621555038      2.58541561957978     -3.13437965844991
  H           1.57920814429280      3.48352280602332     -1.66111801327153
  H           4.46403973723202      2.56301640192466     -1.08831465380196
  H           2.74072145197061      4.88824146184944     -0.07658943715346
  H           4.48690025633814      4.54482165924719      0.35441322477538
  F          -0.09022986998912     -0.12330954183655     -4.07266524218121
  H           1.39240365890640     -0.83764262130204     -2.95532834821726
  H           1.75196395328268      0.63588978999741     -3.92185229995450
  H           3.12215647687219      3.40466396018404     -3.45779442817579
