18
Coordinates from ORCA-job NEB_reactant E -33.544863967690
  C           0.52250133924991      0.71555445637899     -0.60973447957492
  C           1.77772210291718      0.99381830703596     -0.95163393692467
  I          -0.51850949446543      1.96344816936608      0.70699407444693
  H          -0.00862376198598     -0.15783151180777     -0.93404735794316
  C           2.53725549506781      0.06848831419387     -1.86983676607566
  C           1.66698980402236      3.83446118805205     -2.50505020787958
  C           2.91523458130596      3.41285842228936     -2.35739816704108
  C           3.41439935469084      2.73127805952568     -1.11539526058959
  O           2.39281867359657      2.06407876175961     -0.39320577796961
  O           1.15859305494912      4.42995733018542     -3.60293272763057
  H           0.92147359826207      3.73656749029778     -1.72906000169689
  H           3.63880247786057      3.52686199465260     -3.15221054009755
  H           3.80626425090423      3.46168031905793     -0.39818789505111
  H           4.22797288316296      2.04243629988339     -1.37541589490069
  F           2.71074186984885      0.61010631306636     -3.12319895394824
  H           1.98653144809144     -0.86578526617558     -2.00563909742460
  H           3.53861189439249     -0.14020825345116     -1.47532703329081
  H           1.83632042812906      4.49452960568941     -4.28821997640820
