20
Coordinates from ORCA-job NEB E -45.333264164920
  C           0.44271707497969      1.09870432741568     -0.12285659951585
  C          -0.87903365088535      1.29397383175562      0.33408346006991
  C           0.67843460023448      1.25071314353456     -1.52256250029164
  H           1.22685353570110      1.53262585848160      0.49893568559999
  N          -1.03697583926813      1.61345256378760      1.74264597357608
  C           0.58047761425157     -0.77972871557261      0.14051508450211
  C          -0.52444006274814     -1.25541354877778     -0.57132829314084
  C          -1.84052505663909     -0.84458349064957     -0.14863864875237
  O          -1.88402716011490      0.70142372207961     -0.23806132321399
  C           1.96695162027238     -1.19770927257036     -0.31192105696430
  H           0.53074127289715     -0.75861006635337      1.22677001809155
  H          -0.38108728039852     -1.55556192491139     -1.59964394088201
  H          -2.07803858090412     -1.02919574779806      0.90090935029369
  H          -2.64950393875859     -1.15868066998911     -0.80005422577626
  N           0.83050956018013      1.40953015298244     -2.64330308469649
  O          -0.09928488881323      2.15045538651515      2.30117594863093
  O          -2.08848387235144      1.30027062615748      2.25820222451433
  F           2.06994362954407     -1.25947588429417     -1.65338964179776
  F           2.90311291529247     -0.32179142661076      0.11667893000741
  H           2.23165850752844     -2.19039886518254      0.09184263974551
