20
Coordinates from ORCA-job NEB_product E -45.360281378600
  C           2.95024066527447     -1.71386475380845      0.79313445198234
  C           1.71101686953911     -1.42729306659128      1.59018626939741
  C           2.92632570356825     -0.87102067787356     -0.39246377971997
  H           3.82497550901056     -1.40404656072132      1.38508991838542
  N           1.68553971105009      0.02592588119632      2.12959834080928
  C           3.03589273566633     -3.21910608931978      0.43624164246296
  C           2.11945075956154     -3.57637502817911     -0.70266838502110
  C           1.06020531445774     -4.34969222427307     -0.56686364057551
  O           0.79576129203840     -2.12982067427145      1.84417281843873
  C           4.48269035324050     -3.58378989726060      0.09101982089971
  H           2.76362509736709     -3.79390722500827      1.32814087501319
  H           2.38379473944426     -3.14196454719701     -1.65699618143161
  H           0.78204194483433     -4.77653601669910      0.38245387416494
  H           0.42086299982501     -4.57673744770790     -1.40129412188838
  N           2.89335972191620     -0.22265550367905     -1.32913435750399
  O           0.63060159214898      0.39278453117276      2.56294022134767
  O           2.72082859019307      0.64174502417950      2.07149190592834
  F           4.96259150591077     -2.82421270392145     -0.91548118399119
  F           5.28817074813597     -3.35266201939729      1.15851027897611
  H           4.59152414681734     -4.64057100063988     -0.19517876767435
