26
Coordinates from ORCA-job NEB E -54.237840303080
  C           0.31480732007538      0.06365069863884      1.07097288922298
  C          -1.02172809027080     -0.37136864209226      1.17261328087859
  C           0.76281376952611      1.15795910197985      2.00800834172541
  H           1.06894143129001     -0.72028924599214      1.07576789995992
  C          -1.37586726249751     -1.82723163894555      1.10167788716386
  C           0.42497351068815      0.89282313227302     -0.71371470848353
  C          -0.85799872648176      0.78796685480997     -1.25149618116927
  C          -1.94171353100056      1.29080058013471     -0.47142257738591
  O          -2.00787852257995      0.42120047405175      0.89939733518273
  C           1.61774007864342      0.28513111348358     -1.41409441857203
  H           0.64704647204066      1.86598740456744     -0.28686909437335
  H          -1.06831531203569      0.01948978879597     -1.98006361880936
  H          -2.93763507373450      1.13887703028395     -0.87417922380212
  H          -1.80890644496152      2.28545436344289     -0.05551349618185
  Cl         -0.29348504684850      2.57226259651869      2.08550872504580
  Cl          0.81273909808833      0.43674371568884      3.66283087019272
  Cl          2.41783567812720      1.70524340818457      1.64059094579515
  Br         -3.00007383335424     -2.10039402253642      2.14434522766551
  Br         -1.80954749539051     -2.38661246847563     -0.76550543181455
  Br         -0.00962438298968     -3.02185728554629      1.76291266287998
  C           1.46144007767091     -1.16645711623022     -1.85208211516429
  H           2.49050758928571      0.37427113581094     -0.76580706361159
  H           1.81120895454086      0.90198295755439     -2.29663620754974
  H           1.28365071450512     -1.82001342705288     -1.00201835951946
  H           2.37499352600712     -1.49767524587145     -2.33858114817722
  H           0.64407550165623     -1.28794526347657     -2.55664242109835
