26
Coordinates from ORCA-job NEB_product E -54.279571215750
  C           2.73879706940329     -0.21066986320465     -2.29010937164875
  C           1.39567719316503     -0.88638894162108     -2.45485637039010
  C           2.64499962326669      0.60514261362047     -0.99477678884950
  H           3.52995212824356     -0.94649160678865     -2.12549238456466
  C           1.31656058600614     -2.41301202166688     -2.31950276948581
  C           3.16591327872372      0.64421445787109     -3.51283218079296
  C           2.18121144006856      1.70475852205479     -3.90900194967622
  C           2.51597078411922      2.96873937042140     -4.08859847566929
  O           0.37481562023229     -0.30673863455617     -2.68321211677757
  C           3.44479491690024     -0.24032441290307     -4.74135447493497
  H           4.10638098457635      1.12618975850074     -3.22502130937668
  H           1.17337154356673      1.37018907822990     -4.10765337599330
  H           1.80222096012327      3.70185409064082     -4.42076458211313
  H           3.51677001459602      3.32439010678851     -3.90395765822331
  Cl          1.45796976884056      1.91298720405452     -1.06257553465661
  Cl          2.15598783231486     -0.50094999975412      0.33506067932997
  Cl          4.23305640233697      1.28313299792854     -0.58396483469724
  Br          2.78569787576430     -3.32441011775630     -1.46439651309550
  Br         -0.32533187292434     -2.84974331192623     -1.37868923061236
  Br          1.18235891534152     -3.07797207643794     -4.15678030518600
  C           4.56172486040540     -1.25841362445654     -4.54282892183806
  H           3.72811703194894      0.43295262031122     -5.55275355034884
  H           2.52785143890658     -0.74414884390163     -5.05165744780497
  H           5.45111983765209     -0.77796122020196     -4.14171088307193
  H           4.81731468993499     -1.70628884214330     -5.49926663721894
  H           4.27419707648704     -2.06603730310348     -3.87450301230326
