23
Coordinates from ORCA-job NEB E -39.605176930490
  C          -0.03580274779869     -0.33078989300747      1.10707363933628
  C          -1.40203214711246     -0.71277850883580      0.90081167455739
  C           0.20442788588405      1.06868644238973      1.62665887929023
  H           0.53859795168356     -1.07343926099900      1.66050362124649
  N          -1.69068464469757     -2.13872835936492      1.00340272708992
  C           0.62557931695827     -0.43771680623978     -0.53715809725663
  C          -0.26142140473418      0.35328521562397     -1.33469355096527
  C          -1.59771066923131     -0.04601721422014     -1.46895658677048
  O          -2.17155644388826     -0.03291229261827      0.15657933230690
  O           1.96816320078018     -0.14551851204242     -0.43877479171841
  H           0.54904946487372     -1.51550766973455     -0.69806424699846
  H          -0.02622539712257      1.39553311026705     -1.48646489819434
  H          -1.82115245410416     -1.08807036652788     -1.66864944967073
  H          -2.27568744996863      0.63895062124342     -1.95833867161464
  H          -0.38590445409798      1.79960125090853      1.07991236948461
  H           1.25920630831671      1.32153200976328      1.57535239696590
  H          -0.09547536959750      1.09897055508757      2.67284257842317
  O          -2.63687597005191     -2.55948181251314      0.36908921950011
  O          -0.96839150259235     -2.81136970970878      1.71841530914983
  C           2.44370674083429      1.07311064916538     -0.96849764441909
  H           3.51028193539953      1.08135099311714     -0.75154238089509
  H           1.97665671945939      1.94740381258050     -0.50710927831428
  H           2.29325113080791      1.11390574566560     -2.05239215053340
