23
Coordinates from ORCA-job NEB_reactant E -39.634859793310
  C           1.39655724486019      0.23885044725580      0.26563680162039
  C           1.83590220283164     -0.41171769954379     -0.81541584526305
  C           0.22634296434254      1.14943957306707      0.27438103031710
  H           1.91902315740932      0.07867325263172      1.19826345280398
  N           2.98744346552195     -1.30182556143911     -0.68640309435824
  C           3.43540384556849     -0.44930146977532     -4.55523821866808
  C           3.20281538293603      0.21244891828599     -3.42431037257165
  C           1.81863801711903      0.55754241596345     -2.98647871662820
  O           1.27106041772524     -0.38701458132567     -2.03981177273926
  O           4.60553460868259     -0.88544317400743     -5.04440670338099
  H           2.62912208355839     -0.69552911335232     -5.23418824676486
  H           4.00034354226090      0.46970230238966     -2.74399718266911
  H           1.12129320488195      0.50940060997274     -3.82369479305281
  H           1.78738485868529      1.55754640097405     -2.53428002504217
  H          -0.25338084318558      1.17746111390185     -0.70025663685743
  H           0.53995705415966      2.15431213576544      0.55709316776840
  H          -0.49337559670694      0.81316015938358      1.01942825216898
  O           3.30480637556657     -1.95187912877508     -1.65695499867899
  O           3.56044122752562     -1.32973541639058      0.38575182066428
  C           5.73574475455197     -0.79944653702907     -4.20328540712614
  H           6.54441493923120     -1.30020616993846     -4.73192951053223
  H           5.54583114242511     -1.30577593010713     -3.25279878160715
  H           6.01269595004885      0.24263745209262     -4.01550421940278
