23
Coordinates from ORCA-job NEB_product E -39.622762598820
  C           2.75766125617937     -0.41518824122861     -1.28153345386181
  C           1.52195120073203     -1.20609728014859     -1.06002441509805
  C           2.59154184090243      0.98660318660620     -0.69801143751211
  H           3.59853961327394     -0.94440635359643     -0.82053124181043
  N           1.78977435778142     -2.73145248824706     -1.03973136259804
  C           3.01055114793076     -0.45655592242201     -2.84334175689039
  C           2.28958775048583      0.67597594988221     -3.52203131648074
  C           1.09482987234043      0.54539733351995     -4.06629619812335
  O           0.39211559087871     -0.85871607622562     -0.95786010004530
  O           4.37056605687236     -0.56597710960978     -3.16728327380742
  H           2.60211214827920     -1.40109354548187     -3.22868684947179
  H           2.80593053366554      1.62400059821116     -3.54824794296549
  H           0.55958283853549     -0.38957221359730     -4.05270943246428
  H           0.59739461491512      1.37307613670860     -4.54131231418084
  H           1.68659876860303      1.44809301024552     -1.08524280400426
  H           3.44081160773353      1.61847416351758     -0.93671152160823
  H           2.50544234637525      0.92023185212244      0.38448218808041
  O           0.88803171203887     -3.42432774369550     -1.43018741828878
  O           2.86583145611422     -3.09648442425993     -0.63031370334996
  C           5.25374185697590      0.43842464403873     -2.72310522834019
  H           6.20981082436363      0.20308157373681     -3.18732158802412
  H           5.37644911997575      0.41974152608881     -1.63532569535636
  H           4.94424348504717      1.43867142383470     -3.03857313379846
