24
Coordinates from ORCA-job NEB_product E -44.491089852620
  C           1.49966166768702     -1.68326416023323      1.47777456776516
  C           2.83049335005477     -1.34813290448780      2.19464304283771
  C           1.70214820816356     -2.25052700565027      0.07934429182890
  H           1.02796437534508     -0.70446298381125      1.31809649368501
  O           3.78160983623331     -2.27184727204549      2.20891005181412
  C           0.58932650070961     -2.39530451913078      2.53087879624366
  C          -0.85891229625935     -2.07642129509450      2.27943646312807
  C          -1.60196545110263     -1.38745150015434      3.12427398735112
  O           2.95818925438097     -0.30890701860950      2.77133945610513
  C           0.80654898372185     -3.90416477780953      2.75549034009020
  H           0.86228737843766     -1.89520359137117      3.46894069303216
  H          -1.28057470131599     -2.44303279463811      1.35726319436654
  H          -1.20582388745108     -1.00560229209071      4.05114191576693
  H          -2.63884605527773     -1.17641926842709      2.92654286753796
  Cl          2.48304420197551     -3.86082003623845     -0.01398969233735
  Cl          0.18180080745730     -2.34540347337808     -0.83915384020202
  Cl          2.78874557667753     -1.11053847686975     -0.80694371164327
  H           3.58864153602568     -3.05175208119097      1.65918773885923
  C          -0.05036178617714     -4.82479311029118      1.89103034095287
  H           0.55534638716179     -4.10789603154603      3.79878703799978
  H           1.86090210190617     -4.15286978250757      2.63338481441397
  H          -1.09747867996609     -4.73736214318251      2.16835035598161
  H           0.25635089018726     -5.85608255379544      2.04873840583471
  H           0.04300180142494     -4.60064092744626      0.83393238858778
