24
Coordinates from ORCA-job NEB_reactant E -44.483595089270
  C           1.66432594746982     -0.88146509846823      0.22145892174706
  C           2.24795398758057     -0.57085688763194      1.40122796996482
  C           2.31811574492977     -0.68957980350248     -1.07798788253917
  H           0.67140228820155     -1.28816571210691      0.18748512493517
  O           3.47457617490707     -0.05734402092021      1.53035344460924
  C          -0.01818141311692     -3.62957241967679      3.50878360900046
  C           0.43422174651528     -2.78168531332253      2.60006926771583
  C           0.41536567776410     -1.29056211491417      2.76495219606261
  O           1.70363636227624     -0.70578536806705      2.60997597298534
  C          -0.02601025667408     -5.11519908689483      3.35530220866890
  H          -0.44733669774648     -3.25578856432236      4.42982212610964
  H           0.87091963949933     -3.14576804832795      1.68068763735731
  H           0.12202582866918     -1.02630909107187      3.78355431019744
  H          -0.29101254920264     -0.82613410726539      2.06379143702842
  Cl          3.86535174479301     -1.63523350554591     -1.21719237230760
  Cl          1.26609202393654     -1.18863242783185     -2.40243572525469
  Cl          2.78809347877005      1.04377697708156     -1.37264670490163
  H           3.89427899866516      0.07555754179133      0.66789301112665
  C          -1.44963008656833     -5.66760675233846      3.42625358561058
  H           0.56576273990347     -5.55602386358345      4.16220078991046
  H           0.43266429869859     -5.39403440087473      2.40551394411431
  H          -1.91253902318355     -5.41035810840653      4.37620049214340
  H          -1.44079265037027     -6.75026724707757      3.32886705930319
  H          -2.05618400571748     -5.25276257672168      2.62456957641225
