22
Coordinates from ORCA-job NEB E -43.450619483620
  C           0.62245240061955      0.67032806270514     -0.04369680647299
  C          -0.49559139742235      0.91108724697547      0.82180427897865
  C           0.50485437062148      1.37614110061801     -1.38423785436925
  H           1.59808369467619      0.84924218346049      0.40731264879965
  C          -0.36760034857903      1.04251123304031      2.23477160471095
  C           0.59061949252235     -1.09438007352799     -0.35110921834704
  C          -0.72436463134297     -1.26957726918964     -0.86298201294195
  C          -1.85192041166079     -0.84157363144121     -0.06125951281766
  O          -1.70395512828843      0.60811095973306      0.35383484882967
  N           1.66199232025191     -1.52894477214587     -1.12460496830654
  H           0.71973971073791     -1.41639147745961      0.68607957446658
  H          -0.85574200752149     -1.44041211619055     -1.92047451675929
  H          -1.91618235242011     -1.36782856963484      0.89678773574048
  H          -2.80642061549825     -0.87283770715692     -0.58024648280104
  F           1.50454814251686      1.00473618916248     -2.24439502372693
  H           0.61434086301380      2.45697690503780     -1.23360161742100
  H          -0.44761108292251      1.16339501929015     -1.87708749442972
  Br          1.15175483458017      1.97767416973494      2.88828569233833
  Br         -1.96538050290026      1.55916654941816      3.11925486139668
  Br         -0.01815895714844     -1.14949661412602      3.12642328979041
  H           1.61169819758258     -1.31038373141603     -2.10880020875168
  H           2.57284340858184     -1.32754365688732     -0.74205881790631
