22
Coordinates from ORCA-job NEB_reactant E -43.478452226690
  C           2.12915918952055     -0.05035301396489     -0.20433211682306
  C           1.64193598986479     -1.02558190133149      0.55980981935792
  C           1.49245833960449      0.41604526398641     -1.47050170755455
  H           3.03190609171942      0.47233621787907      0.07706330249762
  C           2.34497308701479     -1.42631020881401      1.83257379648963
  C           1.80991005387612     -4.66966387210440     -0.10460602064348
  C           1.73247819648754     -3.52501233345261     -0.79205476273968
  C           0.51495449281851     -2.66759961764335     -0.78321364755416
  O           0.50896458820032     -1.73110812862094      0.32677215142740
  N           2.89057210870869     -5.50259862692155     -0.08473451493335
  H           0.94728193360946     -5.03261027275165      0.43898838800878
  H           2.59378622717465     -3.15341765650453     -1.32965356816123
  H          -0.38935893567262     -3.25196197052095     -0.60662954234497
  H           0.41445813185641     -2.10672499699798     -1.71775936221775
  F           1.85409197859876      1.71029336949211     -1.72790903260808
  H           0.39867896968810      0.38904779699284     -1.40604771782268
  H           1.83263556062810     -0.17693142936774     -2.33142086667775
  Br          2.73890985192475      0.10340207880047      2.97655264208757
  Br          1.28277964514270     -2.68428769859562      2.83089937766789
  Br          4.05934141658363     -2.29662588566751      1.41402189542946
  H           3.76591744495295     -5.11588383098064     -0.40141342693316
  H           2.96346563769789     -6.14965328291103      0.68129491404762
