22
Coordinates from ORCA-job NEB_product E -43.474198932680
  C           2.47707170987360     -1.65427640393520     -0.05919824855194
  C           1.45707750202869     -1.19586873840655      0.93362635734420
  C           2.38073929461117     -0.74423395612673     -1.28787209026147
  H           3.49515479655374     -1.62963148196919      0.33948431101972
  C           1.94716260777928     -1.01319633925017      2.36640073053206
  C           2.16717842939016     -3.16059754167701     -0.38312202575926
  C           1.02901359331570     -3.28332701668760     -1.35917719383938
  C          -0.19826160975656     -3.62663426834755     -1.01639555196269
  O           0.31186717305264     -0.95200559657069      0.67353822492309
  N           3.41076312063536     -3.76430003662967     -0.80895212882824
  H           1.88043806737084     -3.65153168432004      0.55642600324022
  H           1.28620350706464     -3.09538779775406     -2.39343440391370
  H          -0.47012092156783     -3.82564203972190      0.00735010543825
  H          -0.98630913357386     -3.71725908625772     -1.74380488820904
  F           3.16079034676256     -1.21093231967367     -2.30951902614946
  H           2.74270566797543      0.26186703643718     -1.04839521233376
  H           1.35091756682205     -0.69695220991549     -1.65497117000213
  Br          3.08878164016046      0.57696010165954      2.29983699860673
  Br          0.45037929231954     -0.68096002365364      3.53779850214552
  Br          2.98011304080115     -2.51033579146958      3.02911452414450
  H           3.70267524750019     -3.39742170713071     -1.70812329242957
  H           3.31745906088105     -4.76933309859957     -0.88321052515367
