19
Coordinates from ORCA-job NEB E -45.046782706950
  C          -0.15062448305928     -1.20329233588082     -0.41365395874233
  C          -1.53521249140454     -1.00271736818267     -0.33570456524353
  N           0.49610423941998     -1.64750744154842      0.81896818425525
  H           0.24492390911087     -1.71642205385812     -1.28537069820287
  F          -2.21949966677246     -1.20783606329288     -1.49782757110701
  C           0.40772452184543      0.68616567663607     -0.52444613165078
  C          -0.18050903121110      1.22346503674562      0.61801323684655
  C          -1.59749818130060      1.23885931515492      0.69232149643522
  O          -2.11832222322116     -0.34573268701100      0.55925208224803
  C           1.91353726197126      0.65954784282823     -0.65109640238992
  H          -0.05883803808963      0.86392291447664     -1.48882368656195
  H           0.38987386124007      1.25914761199616      1.53349118810255
  H          -2.13744039496119      1.63615143106267     -0.16178421649294
  H          -2.03005653378643      1.51951182324188      1.64320088076639
  O           1.27161438131466     -2.56163748069224      0.69788499111578
  O           0.17754913081935     -1.10805125557948      1.84792221835203
  F           2.51128526630583      0.22436013779461      0.47638858006867
  F           2.29471241186383     -0.17658610134482     -1.64538896939603
  H           2.32067605991510      1.65865099745366     -0.88334665840312
