19
Coordinates from ORCA-job NEB_product E -45.092728672640
  C           2.73065156077754      1.46065013713051     -0.70301144279845
  C           1.87414956804277      1.21637085987909     -1.93380775865936
  N           1.95008977162368      0.92671926078742      0.47423687141404
  H           3.66845377889727      0.89831572115050     -0.76196591547492
  F           2.40282303025211      0.23928067997620     -2.69469916352609
  C           2.96185629213666      2.97027393732425     -0.48987457286573
  C           3.60094072202131      3.22513944493639      0.85049755849294
  C           2.98678850436553      3.84669396575969      1.83823853589182
  O           0.86319222125793      1.74165656843946     -2.22253427945395
  C           3.87221315197631      3.50401739238327     -1.60074870353322
  H           1.99563517909597      3.48139097784284     -0.55962134787825
  H           4.60938259469602      2.84998268433711      0.95802386407509
  H           1.97725922031041      4.20963959770359      1.74118666087866
  H           3.46763712290142      4.00411975670176      2.78736780232330
  O           2.35744503501514     -0.09249430332353      0.95607538729038
  O           0.99330907833956      1.55946354505782      0.81861525877766
  F           5.05819362051528      2.85165583410865     -1.59872587384140
  F           3.33056149093034      3.29180567251255     -2.82123144236643
  H           4.07441805684474      4.58001826729244     -1.49642143874610
