24
Coordinates from ORCA-job NEB_product E -44.496708802750
  C           2.21538872819991     -1.55223330338742      1.78939037991389
  C           0.78911271384431     -1.60409681274621      2.37513921624858
  C           2.08707763378338     -1.22054739835194      0.30562721579704
  H           2.81248803645908     -0.76045331844492      2.24558333903111
  O           0.39818973967776     -0.66782438706150      3.23675961550537
  C           2.88184024069546     -2.91894764577986      2.07112843252894
  C           4.23354970224641     -3.03468149428111      1.43243969645010
  C           4.55805981818272     -3.96822475015686      0.55893025201145
  O           0.03104234971449     -2.48494680892419      2.08385604767531
  C           3.02099930218338     -3.09720520837708      3.58638704380353
  H           2.22262449318555     -3.70079500638451      1.68479116723521
  H           4.96787419980572     -2.31393791906678      1.76755452365360
  H           3.84217225819192     -4.69714814463644      0.21704676076348
  H           5.54814862934285     -4.03868377966388      0.14293937128196
  Cl          1.44853698129836     -2.56181865358680     -0.64415835292589
  Cl          0.97042578711672      0.17337293769984      0.11525025719373
  Cl          3.65204921616294     -0.72551801211827     -0.38147520252561
  C           1.19653229111412      0.43363669766690      3.63034577278889
  H           0.55791121711373      1.02487222485552      4.28484752241072
  H           1.49196540276755      1.04174836936849      2.77275166863940
  H           2.07693873313153      0.10905175858731      4.19035249912696
  H           2.04881992200465     -3.05425461303219      4.07217522746603
  H           3.66396416346585     -2.32663860635571      4.00874652782002
  H           3.46648844031160     -4.06552612582237      3.79889101810617
