21
Coordinates from ORCA-job NEB E -33.375227670410
  C           0.94690067056005      0.47275462255988     -0.49225850774188
  C          -0.44050709166575      0.25424576700778     -0.50613848233933
  F           1.69893799775613      0.05329263728676     -1.54786503253767
  H           1.34266495262373      1.41549612740116     -0.12442111502423
  C          -1.30390984575343      1.12734379270091      0.37606099580298
  C           1.51135580429407     -0.85444108960811      0.79077217036854
  C           1.01645285209150     -2.01784946984059      0.17179016165299
  C          -0.36949174825478     -2.17453747252471      0.03286367146023
  O          -0.89268300083608     -0.86049677930641     -0.95581380859922
  O           2.84732817507134     -0.63622319265665      0.92463187615936
  H           0.99583722045454     -0.47616360210976      1.66951731163238
  H           1.66279963611359     -2.50649257238943     -0.54574457850251
  H          -0.99093085769938     -1.95067590733930      0.89201036654776
  H          -0.72227793106732     -3.01034397029679     -0.55321968403350
  C          -1.83834192720934      2.32017444150656     -0.41941090630976
  H          -0.72464164149550      1.48941673043374      1.22845668569529
  H          -2.14306200892560      0.53204625001086      0.74002380694880
  H          -1.01692600429734      2.93185198392817     -0.78475009366083
  H          -2.47901138648703      2.93546057332397      0.20754790945000
  H          -2.41534041340113      1.97272265895743     -1.27245285636950
  H           3.31484654812773     -1.01758152904546      0.16840010940010
