21
Coordinates from ORCA-job NEB_product E -33.939486196460
  C           1.39026854624827     -0.89972648280540     -1.24316578070402
  C           2.59557158583181     -1.23745898174679     -0.36308270755087
  O           1.67664564424852      0.09689907519509     -2.18464073147045
  H           0.55310146383282     -0.59430453944281     -0.58928070812282
  C           2.26102801397088     -2.23766037005290      0.63884896024817
  C           1.00374898744363     -2.19975502874598     -1.99262384349542
  C          -0.07404070436101     -1.92042291926667     -3.00482690780377
  C          -1.26638666300273     -2.48501300913279     -2.98108108755661
  O           3.68214846819113     -0.73503206319664     -0.45463866418709
  N           2.23229980464654     -2.73019088778045     -2.56885241755992
  H           0.64023327628363     -2.92803309913293     -1.25618058216650
  H           0.20849979361351     -1.22804532480652     -3.78535854620778
  H          -1.55103230290733     -3.17558856396808     -2.20350993990504
  H          -2.00721706256750     -2.28340797455705     -3.73589390951519
  C           1.78459240823442      1.39681909119811     -1.65088392299146
  H           1.92203345604401      2.05859482566784     -2.50337161862257
  H           2.64076210225982      1.49164157470178     -0.97780355178351
  H           0.86900100667436      1.67571642381544     -1.11443131808840
  N           1.95790523793415     -2.99117769590447      1.44538219837156
  H           2.66107477971782     -2.02327739880205     -3.15837431712124
  H           2.03136215766323     -3.54127665123674     -3.14383060376709
