17
Coordinates from ORCA-job NEB E -38.172922983640
  C           1.05957065856057      0.28603518608481     -0.36521004133554
  C           0.16552294449604      1.34350393901562     -0.53141997921176
  C           0.97227630548681     -0.82201698282847     -1.39707444749842
  H           2.08670158911452      0.51701009971027     -0.09896473273212
  Br          0.63820026637990      3.01405294662374      0.34232785479337
  C           0.26749574821690     -0.51550280284921      1.24850103236629
  C          -1.06533366473131     -0.68262376062523      0.88547866900274
  C          -1.81860727286780      0.47786679890622      0.55090413080061
  O          -1.07476142740281      1.14828770846462     -0.73861902349200
  F           0.99834108263405     -1.61284756244728      1.47759425057870
  H           0.57094161366346      0.28189764171088      1.92462969215001
  H          -1.36576991510731     -1.64419479335250      0.49737397241994
  H          -1.76668726023070      1.30964271804017      1.25035684673968
  H          -2.82040454417897      0.30980735867509      0.17612815614337
  F           1.48039610470478     -0.36472667951804     -2.57084082520769
  F           1.72727142877437     -1.88229133334830     -1.05868369490552
  H          -0.05515365751252     -1.16390048226239     -1.59248186061167
