17
Coordinates from ORCA-job NEB_reactant E -38.198413697250
  C           1.72358094342214      0.00798676185471     -0.08563793124909
  C           1.05662596738540      0.18627098206076      1.05876707499979
  C           2.20089911273948     -1.34909940850377     -0.49922880890300
  H           1.94465449696160      0.83760132201008     -0.73086697713495
  Br          0.47103252989823      1.95559008406865      1.49398914873029
  C           0.02663072112925     -2.13757349044822      4.95753139621289
  C          -0.22783130858561     -1.93927081229837      3.67847498571060
  C          -0.06932665475409     -0.61036012086997      3.01658746637100
  O           0.80152852126921     -0.78889618574546      1.90825170032669
  F          -0.14241710443771     -3.33163479222339      5.53090208194769
  H           0.36019913011900     -1.39115687570438      5.66526938697019
  H          -0.54568249999881     -2.75390665207373      3.04597921874383
  H           0.35130166203299      0.12549869100229      3.71338124403577
  H          -1.04589393737109     -0.25003257839265      2.66257437955412
  F           3.11713704378066     -1.84962696164195      0.37157344871005
  F           1.18643701675962     -2.25331772318817     -0.52076357863173
  H           2.66192435964972     -1.34287223990643     -1.49798423639415
