17
Coordinates from ORCA-job NEB E -29.375491279920
  C          -2.34137901545367     -3.00668090941955      0.53686223911589
  C           0.84288121757422     -0.51735011805238      2.51637975450704
  Br         -2.43980824632162     -1.20776578875875      0.63529682664807
  H          -1.43447405885794     -3.28368901793185      1.14631557526933
  Cl          1.30311900779731     -1.61776560357282      1.19880809469174
  C          -0.20603119360309      0.78506934277517     -0.90830518071654
  C           0.91387362785957      0.92038800173944     -0.19307595971840
  C           0.99558677611219      1.61386326402611      1.09699020412047
  O           0.75829980782808      0.70175520368482      2.28322424313160
  C          -0.28481273371595      0.01493448705991     -2.17833153706422
  H          -1.12514390355567      1.23739726152281     -0.55573328971448
  H           1.81306630590547      0.45834514354160     -0.58677519465254
  H           0.20490501930130      2.36075924520749      1.22669310442562
  H           1.95869754643043      2.07912796575768      1.29710339495695
  H          -0.94908456767351     -0.84137390240064     -2.06577171643829
  H           0.70302010426118     -0.32693333790833     -2.48373019949687
  H          -0.71271569388830      0.62991876272928     -2.96595035906536
