17
Coordinates from ORCA-job NEB_reactant E -29.577729538530
  C           1.01125781920524      0.16555999408607     -0.79054722962881
  C           2.12388591011307      0.84140063192915     -1.06804653435738
  Br         -0.57372005171054      1.09043202582412     -0.37284157093670
  H           0.94538284981860     -0.90486762723713     -0.76864033130237
  Cl          3.55250580335872     -0.06143021210678     -1.48054639881978
  C           2.18405092968469      2.33497849238415     -3.85999352902418
  C           3.22521914145413      2.73566304414791     -3.15033684775422
  C           3.25450350573210      2.85332923618762     -1.65323459106318
  O           2.19689965917558      2.16827877669558     -1.00001890394859
  C           2.17080937513286      2.21702778353280     -5.34480388340046
  H           1.25866790892017      2.06682286942393     -3.36661814249954
  H           4.15098165561143      3.01792835352170     -3.63224862017139
  H           3.12049437483470      3.89696829036383     -1.34955135790065
  H           4.22096201474427      2.50295263803694     -1.26867503786592
  H           1.96237382137806      1.18799409342683     -5.63650084898673
  H           3.12402182160640      2.51867851107079     -5.77139841373910
  H           1.38140346094051      2.84208309871247     -5.76029775860102
