18
Coordinates from ORCA-job NEB E -28.933301995740
  C           1.16976420942588      0.01570841259520     -0.55196394982858
  C           0.48625519613051      0.99618004564920     -1.25358948687394
  N           1.02984705400778     -1.35096077578124     -0.84718197091865
  H           2.12026808777198      0.26605412080899     -0.09807609358546
  I           1.18469476937678      3.03908098020943     -0.78125585160007
  C          -0.14082069153089      0.06222164001076      1.14821221420601
  C          -1.33712366902919     -0.18335176203146      0.46595202825373
  C          -1.90731673502960      0.77548538283051     -0.35043672883712
  O          -0.64322006183972      0.88379261631289     -1.74677332168037
  N           0.39935420132538     -0.89394590660753      1.96787080689506
  H           0.09430085417858      1.07913440318049      1.43765735506992
  H          -1.62861634278787     -1.21724889210452      0.33985446540381
  H          -1.80143586807105      1.82152538794113     -0.10114598635696
  H          -2.78266125423421      0.53052593178811     -0.92888293142074
  H           1.87990379965746     -1.77421339372049     -1.19629013690305
  H           0.25605740556855     -1.51812427826135     -1.47969277898751
  H           0.31063600793105     -1.84056184920485      1.62655091100052
  H           1.31011303714859     -0.69130206361528      2.34919145616340
