18
Coordinates from ORCA-job NEB_product E -28.958578994320
  C           1.51133796052305     -0.37024795137349      2.21607425344357
  C           1.02350922965280      0.58292596431397      1.15706011617715
  N           1.21895632768787     -1.74129434560927      1.87610949102254
  H           2.59321345637835     -0.25842081828339      2.34401742354846
  I           1.83358995675577      2.59407750108443      1.35896518814739
  C           0.85932710113898     -0.01038740330319      3.58277673588733
  C          -0.63815490877824     -0.17001062166791      3.50874709338793
  C          -1.48286123488359      0.84063630493369      3.42805842567771
  O           0.27866977408908      0.34718734140599      0.27122919940965
  N           1.50146340435947     -0.84084747452074      4.58296988786319
  H           1.10086830470124      1.03306848275888      3.81784443391035
  H          -0.99658596269560     -1.19082699548512      3.54916144082478
  H          -1.14323940048795      1.86355898390509      3.39903978005823
  H          -2.54830174298626      0.69218474906308      3.38503822614413
  H           1.78074767667872     -2.05463552118675      1.09338181668237
  H           0.24170352374247     -1.84894990060074      1.62506629605098
  H           1.41671950282646     -1.81690258096535      4.31730981300590
  H           1.06033703129738     -0.70921571446918      5.48595037875834
