21
Coordinates from ORCA-job P E -24.510536934060
  C          -1.60270584325477      0.21279310306924     -2.18913629168863
  C           0.04785730815714     -1.65851124455770     -1.06416676645550
  C          -1.40084288876760     -1.99788572777396     -1.21228707809026
  C          -2.20038067296886     -1.09027543712454     -1.74867080711764
  C          -0.74891741680133      0.77726928068712     -1.03927146187997
  C           0.18451176389402     -0.27256046994254     -0.41214032662207
  H          -1.75699765075317     -2.95470899145851     -0.86342833246965
  H          -3.26321561497418     -1.22509395068354     -1.86071670819653
  N          -2.63916879540089      1.16677826051112     -2.55245947603408
  H           0.57343869443863     -2.40197977945837     -0.46450206515888
  H          -0.92723461720745      0.01235361716637     -3.04877193882881
  H           0.51670444751840     -1.63234595714383     -2.05322614478463
  H          -1.44101136699803      1.15864392582673     -0.28717875794219
  H          -0.04905912707601     -0.37405934877444      0.64861840605876
  H          -0.16901672138417      1.62373334317511     -1.41406147186997
  H           1.22324768753460      0.05284437497307     -0.48860362268865
  C          -3.20164650881566      0.93162575138188     -3.86563648397961
  H          -2.25834454579725      2.10796785221131     -2.51487970336214
  H          -3.67583274726218     -0.04903218249795     -3.88120383518426
  H          -2.45192232889268      0.95937890092312     -4.67326841939456
  H          -3.96008305518855      1.68663467949033     -4.06568871431075
