21
Coordinates from ORCA-job R E -24.427960004800
  C          -1.28978183255906     -0.32261266562027     -2.86750215798211
  C           0.09876431032286     -2.74803955734766     -1.70776815841711
  C          -1.21533870586985     -2.56188449120525     -1.82343329975934
  C          -1.89716266933803     -1.41555124269280     -2.37679148600397
  C          -1.02779770209585      1.82929390708752     -0.11527505261496
  C          -0.08905966169857      0.91303474050061     -0.00152734818231
  H          -1.87434501818127     -3.34172917741178     -1.45952106828780
  H          -2.97575485369851     -1.47083487978346     -2.37280213440318
  N          -1.89746992438447      0.75845232387307     -3.45368972047567
  H           0.50034976460854     -3.64433951410102     -1.26749047600377
  H          -0.21156880977846     -0.25581188895041     -2.87464826368709
  H           0.82133415621109     -2.02473358059482     -2.04456211391957
  H          -2.07021704970563      1.56613108752240     -0.19089091980530
  H          -0.31618131917796     -0.13989368144412      0.01010687733093
  H          -0.80333136783986      2.88383357496696     -0.13176061524740
  H           0.95385141640747      1.17545632465059      0.07693211272289
  C          -3.32615882154013      0.94074706086327     -3.38594479522627
  H          -1.36197563520068      1.61234292892618     -3.42350573980828
  H          -3.69426478897969      1.02882779469938     -2.35602930476660
  H          -3.81919814544290      0.08962401301974     -3.85617573649508
  H          -3.59482334205905      1.84180692304187     -3.93362059896802
