21
Coordinates from ORCA-job TS E -24.414337312340
  C           0.02128214411644      0.20143673793926     -0.92656296478443
  C           1.57448902102999     -1.63523945219426      0.66362735105549
  C           0.28382780018702     -1.88755880607597      0.28982236007897
  C          -0.48450808195376     -0.98172241691655     -0.45967379380828
  C           0.59739663211600      1.02618991574250      1.26946113190202
  C           1.29569160891541      0.06593414819323      1.93065880423753
  H          -0.24519964058124     -2.70500130312192      0.76208943260961
  H          -1.54525098458228     -1.17037169652051     -0.53229463737168
  N          -0.71682180794060      1.21356858595983     -1.48319802648083
  H           2.08516118969474     -2.33752917946422      1.30428799309202
  H           1.08380386892397      0.32069464357770     -1.05950613293089
  H           2.22302870850378     -1.04942515322873      0.03622654967331
  H          -0.46121588841966      1.14300140974458      1.41227841892925
  H           0.80446317182171     -0.52640841366901      2.68469607914266
  H           1.09896148755642      1.81972191311178      0.74450522222685
  H           2.36477743615486      0.15257229579221      2.03490835553470
  C          -2.14887716212173      1.14511016431180     -1.61059516827385
  H          -0.24676636907810      1.79450832260292     -2.15777057469270
  H          -2.58385796175178      0.89499765030575     -0.64278143171364
  H          -2.47582705302538      0.39560812330809     -2.34307187516918
  H          -2.52455811956580      2.11991251060150     -1.91710709325693
