16
Coordinates from ORCA-job NEB E -36.719038206610
  C           0.49015237451317     -0.83881330549188     -0.29241288600837
  C          -0.78823732060919     -0.40204677756824     -0.66513630681595
  I           0.20990937163199     -1.74124402744601      1.98824834287254
  H           0.85526814692931     -1.72383738038415     -0.79920339750451
  N          -1.65830551403822     -1.17966940164741     -1.45616408199553
  C           1.50152867922928      0.29764905450381     -0.13410692058388
  C           0.84272357808901      1.44516297554939      0.53351658490686
  C          -0.55028448300845      1.28821577578148      0.86081541848851
  O          -1.36659036723001      0.65662489863634     -0.05564500276454
  F           2.61692810537718     -0.10210956783543      0.58065797740333
  H           1.89212292892724      0.54393368853694     -1.13457896894665
  H           1.45292907934900      2.06049287369871      1.17365050522206
  H          -1.06847451246242      2.16642097581871      1.24100947312469
  H          -0.44923512649569      0.49805051982166      1.72559078619116
  O          -2.79387375473762     -0.77575746193179     -1.61276497893299
  O          -1.18656118546456     -2.19307284004211     -1.95347654465671
