16
Coordinates from ORCA-job NEB_product E -36.756546062590
  C           3.09394466431303      1.26745573547641     -1.12888034373650
  C           1.76322359328214      1.39674672515321     -1.76593057941389
  I           2.57797108129976      0.01461488019195      0.57837010262691
  H           3.78140784997406      0.66662278148348     -1.72773468069415
  N           1.34135976496803      0.12133387050774     -2.54431182952190
  C           3.72894251178528      2.61330799697086     -0.76257947495402
  C           3.23543888758353      3.19815396569333      0.52801643639122
  C           2.21132596322077      4.02456670515864      0.61686762261354
  O           0.99542706893914      2.29959963520425     -1.75282489551715
  F           5.09013259336815      2.42329790946764     -0.69368709626502
  H           3.55581196662488      3.30382566446866     -1.60136286086200
  H           3.79759601172159      2.88297614375258      1.39595186860938
  H           1.65559047584600      4.34470736212274     -0.24854627153282
  H           1.88029630903188      4.39857289399255      1.56945109233736
  O           0.23429862595220      0.14363167141043     -2.99825467171376
  O           2.16773263208954     -0.75181394105446     -2.64624441836719
