21
Coordinates from ORCA-job NEB E -50.281266274700
  C           0.63889735240052     -0.98574555250738     -0.41341978629266
  C          -0.66180952069998     -1.32825314213296      0.05582986790958
  O           1.71408961455812     -1.27393667494628      0.34509701773331
  H           0.86057738067686     -1.12189459691487     -1.46840640425870
  C          -1.80259425947423     -1.43470646608459     -0.94099495099206
  C           0.42456477179851      0.92410028005019     -0.22805065633221
  C           0.12657673137300      1.07863359851070      1.13633727422059
  C          -1.09828673428461      0.59313558316131      1.61853727190054
  O          -0.92981460008911     -1.10904831356590      1.29177363638725
  C           1.74119183475289      1.48769976103337     -0.70787382853711
  H          -0.35729518293291      1.11023216583722     -0.95677883793566
  H           0.95359897363062      1.18447333680469      1.82566057888186
  H          -1.98949164315148      0.77539390463800      1.03216661495925
  H          -1.26268520085400      0.59605442327385      2.68608537514324
  H           1.44368104738448     -1.36088180674420      1.27325441348731
  F          -2.24966384507754     -0.20426918270014     -1.34046009882851
  F          -1.40247233818064     -2.06121619055527     -2.06739071222933
  H          -2.66293111825444     -1.97391274033274     -0.51851724033958
  F           2.12483367530284      0.98633929694973     -1.88786152939991
  F           1.64083407186575      2.81962271011635     -0.88366442431157
  F           2.74819898925535      1.29817960610893      0.14867641883436
