17
Coordinates from ORCA-job NEB E -30.499780447020
  C           0.02110018120426      0.36920399093469      2.42226045543494
  C          -0.56549262765314      0.44693004659412      1.23021171291173
  N           0.34412867991698     -0.82825937533995      3.04876022524320
  H           0.32402672252645      1.27170510057650      2.92829084068995
  F          -0.71127520928241      1.66361094836000      0.63112084798333
  C           0.66868617192246      0.64211793777286     -2.27649416128773
  C          -0.37667538948386      0.02061119854861     -1.75483267827952
  C          -0.27261283313004     -0.96800275512972     -0.63842427712183
  O          -1.04258103008462     -0.59120918498402      0.51315227334364
  O           0.57670539478422      1.59960247930106     -3.25234703125211
  H           1.68227757856540      0.43135437903950     -1.94064593961139
  H          -1.37637774990780      0.26282853532481     -2.08562949469842
  H           0.77637975618729     -1.10761227635767     -0.34995577599522
  H          -0.70382345093549     -1.92822187355972     -0.93562480943155
  H           0.11467758974979     -0.85682043843943      4.03218031517034
  H          -0.03069321473545     -1.62952101022222      2.55612616843057
  H           0.57154943035598      1.20168229758056     -4.12814867152990
