17
Coordinates from ORCA-job NEB_product E -30.522475387310
  C           2.74189019421529     -0.74484567796763     -1.19995015470229
  C           1.33309876388636     -1.14263684725708     -0.87035649087761
  N           2.99947154411134      0.66686659435000     -0.98974009168967
  H           3.43409482019887     -1.33587751522713     -0.58880058193294
  F           1.16821750722847     -2.49549482492615     -0.92565388618046
  C           3.04952088253205     -1.08444265751703     -2.70035251141567
  C           2.07703848198524     -0.35659256541661     -3.59294551795112
  C           0.95281900908496     -0.88452807360618     -4.03739633327271
  O           0.41370403302311     -0.45224428657864     -0.60002491949089
  O           4.37852912698700     -0.75906350111222     -2.97341306540378
  H           2.95773214748460     -2.16588630553525     -2.84350591720241
  H           2.36512150674018      0.65237731244638     -3.85535012286905
  H           0.66231594464467     -1.89327400208342     -3.79294177169681
  H           0.27359372345892     -0.33115419982481     -4.66227435929217
  H           3.04721006346416      0.88422955395826     -0.00086647643340
  H           2.24089516048599      1.21573296166409     -1.38411028240112
  H           4.51834709046878      0.15313403463341     -2.68161751718791
