17
Coordinates from ORCA-job NEB_reactant E -30.512862097330
  C           1.82024411631584      0.30581733470309      0.09463170315959
  C           2.19090856886101     -0.56850229056603     -0.83842843998417
  N           0.63641228081209      1.02901832913323      0.04803026085652
  H           2.48369607167491      0.51606096913969      0.91784853678631
  F           3.43874146324401     -1.12995320465476     -0.75492182244666
  C           3.20816175960834     -2.20544377041046     -4.43120721857975
  C           3.14761955203683     -1.14504511996792     -3.63631480709954
  C           1.85761362894825     -0.54033807406953     -3.18779302316032
  O           1.44787091492123     -0.99067512357312     -1.87795606241564
  O           4.33409755307360     -2.82197742700128     -4.84453559764707
  H           2.32673332056938     -2.66980411125404     -4.85029968096593
  H           4.05365415739609     -0.71951389387290     -3.22533905529844
  H           1.03770979406246     -0.85131500609896     -3.83757029028991
  H           1.92586143304593      0.55495125362306     -3.17415632204678
  H           0.21117881813849      1.18975446252736      0.94908724357083
  H          -0.01969862700573      0.66197794076096     -0.62824947143728
  H           5.10329519429729     -2.41741226841838     -4.42212595300177
