26
Coordinates from ORCA-job NEB_reactant E -44.132442142450
  C           1.02461049352290     -0.31994621489647     -0.52242665011595
  C           1.41605685882570      0.94228707297915     -0.76113924178531
  C           1.36822692505743     -1.02340388668634      0.74063273132530
  H           0.45645823410099     -0.88667835650334     -1.23545734082380
  C           1.08483282430805      1.60273360550797     -2.07074603157788
  C           4.46602182934638      3.91725428816802      1.23767986495224
  C           3.30968485577354      3.27791259242295      1.27731993664539
  C           2.49336404214462      2.93276871764244      0.06990780513337
  O           2.14852287953446      1.55886220333264      0.17759719375043
  C           5.27427070993676      4.27463819882191      2.43730744787372
  H           4.87996682380809      4.23077136630398      0.28687071721856
  H           2.88489633946176      2.94596388718082      2.21327033840624
  H           3.06332422901637      3.12756668589019     -0.84591322241994
  H           1.57698961550163      3.54308443836431      0.05887431509336
  F           0.81909108462062     -2.25067715327888      0.78674843866544
  F           2.69329760901104     -1.20621050677177      0.91690178846312
  F           0.94101502246876     -0.38514815517006      1.84873429882772
  C           2.20483299423596      1.36602832994417     -3.08822881967505
  H           0.92893058811859      2.67329096045631     -1.93349489500668
  H           0.15900426639506      1.17269896517837     -2.45235491989929
  H           3.15346905923505      1.75794707432616     -2.72912020560360
  H           1.96320346459744      1.85414567546758     -4.02908103772887
  H           2.32584206252676      0.30105883824025     -3.26754980206669
  H           6.26650531018368      3.83133169540950      2.36344803881176
  H           4.79747103959954      3.92261503452066      3.34769429889796
  H           5.40061083866886      5.35530464314948      2.49742495263845
