26
Coordinates from ORCA-job NEB_product E -44.140989237070
  C           2.60255037497838      1.06461489249656      0.17420342704323
  C           1.31218317087117      1.41752634310875     -0.58515552735077
  C           2.20211292803135      0.30980039075869      1.43777776907019
  H           3.20072873737957      0.35136117456715     -0.40163689423527
  C           1.21223187968182      0.85388542497676     -1.98005218209814
  C           3.44419699164789      2.34647036920069      0.41898986264484
  C           2.62816379200123      3.48072625403553      0.97038429402802
  C           2.44056723393298      4.61757876076574      0.32800252368935
  O           0.46257467330125      2.10010932075495     -0.08403967392011
  C           4.64108247516376      2.07032335138155      1.33167258524827
  H           3.82147965130948      2.64567969670350     -0.56587963374468
  H           2.21159773071418      3.33426498292014      1.95496098015666
  H           2.84518212481497      4.79131670280333     -0.65676911174220
  H           1.87024858899484      5.42240152536703      0.75649469705609
  F           3.23700014215960     -0.36739863627729      1.97011824902342
  F           1.69435229874728      1.05130347652161      2.41797756377830
  F           1.28032429538910     -0.63089129074547      1.14692519157745
  C           2.25634960621106      1.47051099704492     -2.91228717258896
  H           0.21151383958854      1.06637434981255     -2.35830666984821
  H           1.34869473430267     -0.22869782951033     -1.93285788608738
  H           2.14812212344202      2.55212304937104     -2.93297088950034
  H           2.11369896343312      1.09179551525446     -3.92095189812199
  H           3.26769917167017      1.22588810450306     -2.59738864630621
  H           4.31978766913942      1.86839074748232      2.35008672510257
  H           5.28623841410717      2.94541249926655      1.34888997738036
  H           5.21801838898698      1.22022982743622      0.97401233974552
