23
Coordinates from ORCA-job NEB_product E -40.407555960400
  C           1.55423444455189     -1.73532154914241      0.61393667666293
  C           0.38056523631994     -0.82095195658611      0.89265487649330
  C           1.83893838243926     -1.63612094158930     -0.90099732120856
  H           2.41404679111146     -1.36204274663009      1.17529886241724
  H          -0.56864584571851     -1.18103471340015      0.44910900675120
  C           1.17388465411735     -3.13613315563696      1.13398860167785
  C           0.57996372732468     -2.96287046894537      2.50973439794988
  C          -0.67657510375642     -3.23122286064142      2.80733207713141
  O           0.43835911831439      0.22038185700062      1.47744539145205
  C           2.34165953802325     -4.12122385260944      1.21565833747035
  H           0.42545594064607     -3.58184239572078      0.46998337652353
  H           1.25640591578097     -2.57090919545588      3.25558575049478
  H          -1.06883086040258     -3.06976817291783      3.79582907924188
  H          -1.36536443854318     -3.62520598869386      2.07797942437589
  C           3.30163096666896     -1.32354328127520     -1.18952552526070
  H           1.22271294569214     -0.83687534222668     -1.32358329082537
  H           1.55034060300631     -2.56211282350681     -1.39762502010924
  H           3.57915341886550     -0.36894791039826     -0.74919604298082
  H           3.46603232157798     -1.26651990871480     -2.26272282534049
  H           3.95074429575085     -2.09435001463051     -0.78427732081487
  Cl          3.72718416704458     -3.44608878058618      2.09358636523851
  Cl          1.80353134084382     -5.58897178818840      2.08916569832126
  Cl          2.89817244034129     -4.65312400950415     -0.38526057566202
