19
Coordinates from ORCA-job NEB E -39.629962387240
  C           0.79603514583371     -0.33110558763190      0.84589141476151
  C          -0.52598727476609      0.00334225446600      1.27318770137446
  Br          2.18382841635660      0.85352248627664      1.46123065027043
  H           1.11955562330959     -1.35122988984009      1.03252949509142
  C          -1.48206022473167     -0.99525640012030      1.60286239355268
  C           0.79559117343890     -0.16600568308989     -0.94694519436665
  C           0.28698183703556      1.14898197948622     -1.11161999094566
  C          -0.98199064098168      1.50787342115173     -0.50618076201509
  O          -0.98797673913882      1.21006034326970      0.96879821681573
  N           2.08849452801981     -0.46537081616483     -1.36233499195469
  H           0.08358241529501     -0.97365158600582     -1.13695781204764
  H           0.97494574274037      1.93661505820211     -1.38370017867423
  H          -1.81557678484520      0.90974696316718     -0.89177631119922
  H          -1.21071585909403      2.56901398076210     -0.56280698354974
  Br         -0.88612765423743     -2.54339830355242      2.51901991179977
  Br         -3.12355270009174     -0.32925957458042      2.26912417921878
  Br         -2.19822448815943     -1.95166307526342     -0.53323689420273
  H           2.65048253786144      0.30164908206618     -1.69205656105910
  H           2.23271494615510     -1.33386465259876     -1.84502828287003
