19
Coordinates from ORCA-job NEB_reactant E -39.661878403540
  C           1.32420993690331      0.03099190636861     -0.27396224607911
  C           1.91024460426302     -0.86856005670502     -1.06722397338864
  Br          1.85888562148218      1.83257541345699     -0.09726142856685
  H           0.49695090219686     -0.22048226567985      0.36684486459173
  C           1.44967651180484     -2.29898905571575     -1.10547901258684
  C           2.48669279391639     -0.32811624647102     -5.11531532688888
  C           3.38054932986501     -0.05021352544769     -4.16237433599818
  C           2.97932616772491      0.43661727378149     -2.81466901291209
  O           2.91119603189210     -0.72362788644526     -1.94528494024437
  N           2.79059411810119     -0.74606424571259     -6.38157667988584
  H           1.43241917957257     -0.14594526527959     -4.94900051467338
  H           4.42977013666475     -0.24827445261803     -4.31510759433330
  H           1.99690946722817      0.91439836318305     -2.85175760212377
  H           3.71483596346854      1.12866419938427     -2.39596491218178
  Br          0.35512005291513     -2.87194674266421      0.37734700206148
  Br          0.41313841866164     -2.53908651563860     -2.76410596371416
  Br          3.00147758347457     -3.46215681118324     -1.21073019557180
  H           3.72245038106071     -1.10212030768443     -6.52399962425359
  H           2.06905279880410     -1.22026377892914     -6.89687850325060
