19
Coordinates from ORCA-job NEB_product E -39.658971055450
  C           2.17190257371121     -0.74850104420301     -2.19807318789247
  C           1.01383310075504     -1.69894516706967     -2.27937252843207
  Br          1.53330515109699      0.65064675084095     -0.99074433265301
  H           3.05806179474338     -1.19029266545784     -1.73975740351598
  C           1.13923116769976     -2.95916706881971     -1.43968770065484
  C           2.51545969753169     -0.17281101058660     -3.58689240327494
  C           3.66502619249197      0.78193988208077     -3.45826520467739
  C           3.54719269553295      2.09143177358076     -3.56051986016928
  O           0.05360064885139     -1.53885235687788     -2.97626512251901
  N           2.90183320856509     -1.31800756197238     -4.39689954065595
  H           1.62439172281229      0.35625265839900     -3.96355190964742
  H           4.61758604420383      0.30858457685576     -3.26410835102811
  H           2.59778381518503      2.56519852365704     -3.74945133875558
  H           4.39473186903593      2.74498916485670     -3.45161347314612
  Br          1.73645419247115     -2.63111595332142      0.36931706809623
  Br         -0.53758445255507     -3.91331358283268     -1.41859368158096
  Br          2.49077800615195     -4.02239884290000     -2.38649741065033
  H           3.51228554791753     -1.03744251197526     -5.15397345018283
  H           2.09452702379789     -1.78079556425455     -4.79765016865996
