17
Coordinates from ORCA-job NEB_product E -28.855290484210
  C           1.57448734886916     -0.99911592800349      1.24201414239865
  C           0.87140610112058      0.30979260696403      1.02193906415315
  C           1.29780649671283     -1.92760734228314      0.06205155400096
  H           2.65181044607300     -0.81654108619534      1.32586587549436
  I           1.64169970905417      1.90726071088449      2.29310199277739
  C           1.08372011881599     -1.54905249473773      2.59475471387865
  C          -0.37815891927758     -1.83080290896470      2.63216851961794
  C          -1.20948837722181     -1.19417466136087      3.43660497423920
  O          -0.01954660062909      0.54804833083137      0.28884254823994
  Br          2.08091915005057     -3.20787234465488      3.01457880116325
  H           1.36144090852275     -0.85916368870008      3.39611453856494
  H          -0.72973033484659     -2.60569382151770      1.96614545322219
  H          -0.87298789280052     -0.42915012101677      4.11806149181961
  H          -2.26343962728838     -1.40902898199319      3.44154521595206
  H           0.22975606295701     -2.01964823288897     -0.11852541674592
  H           1.71602673800571     -2.91269236802924      0.25411903794202
  H           1.75917867188220     -1.52715766833380     -0.83778250671839
