26
Coordinates from ORCA-job NEB E -48.311370375140
  C           0.17057662761048     -0.70758577398903      0.78207409940067
  C          -1.20712527738974     -0.94304395012833      0.85765447759114
  C           0.89176161297465     -0.20070212618892      1.99851812941862
  H           0.76457893097736     -1.47218491584530      0.29379611013663
  C          -1.81267870188245     -1.96643007005228     -0.08261579436369
  C           0.22654003457989      0.91960606018239     -0.42991713903604
  C          -1.10376288789277      1.32454368311119     -0.54169636597646
  C          -1.85762027334341      1.51626864715646      0.63140679477088
  O          -2.01420929695789     -0.05723455126101      1.31276911218977
  C           0.96660124762742      0.49381273372169     -1.67411290102661
  H           0.83191624140361      1.47148561184991      0.27933187448446
  H          -1.63977896272618      1.03639196680997     -1.43916740286826
  H          -2.90470635879526      1.76718921727112      0.52914069639914
  H          -1.37450024664823      2.00703580428205      1.46633773163756
  F           2.17273288217432      0.11671919172601      1.73655168347170
  F           0.35987916184783      0.87354616037050      2.59040565942039
  F           0.94493808577879     -1.15872930097552      2.94483322589976
  F          -0.89135166702214     -2.86909716651396     -0.53453014572170
  H          -2.22587883537403     -1.45067725292108     -0.96182825476498
  H          -2.60996488691843     -2.52222923942819      0.42010242478368
  C           2.45882573565066      0.27706305643471     -1.45707758927591
  H           0.83119029589091      1.28315691970371     -2.41934116372760
  H           0.51339795414261     -0.41278024357515     -2.08146977155022
  H           2.91985144110642      1.17403685928788     -1.05094287345810
  H           2.94139238349311      0.04101905824750     -2.40217561731408
  H           2.64739475969249     -0.54118037927634     -0.76804700052073
