15
Coordinates from ORCA-job NEB E -30.174408980570
  C           0.09982546944800     -0.11535030724207     -1.45999307801742
  C          -1.22135916472965     -0.04541386462764     -1.05073623624334
  Cl          0.81310666941910     -1.68484346656638     -1.70079869555923
  H           0.48365451834540      0.61345816987593     -2.16279965045221
  I          -2.08278961842629      1.95134519930684     -1.35567684447738
  C           0.96425120612753      0.42757788037108      0.36319670005318
  C           0.34370167149623     -0.51623937220363      1.18297480178771
  C          -1.02513943762992     -0.45193258703367      1.42741518485382
  O          -1.75798531910418     -0.76412994390627     -0.19787648821317
  O           2.28504375330667      0.28914213106349      0.12643129782591
  H           0.57009385971988      1.44122169848013      0.33521413487028
  H           0.87027044556181     -1.44747766855804      1.32907921466310
  H          -1.49419430229667      0.51685213367538      1.54703404405170
  H          -1.48923625791410     -1.24832395214654      1.98755213178123
  H           2.64075650667618      1.03411394951139     -0.37101651692417
