15
Coordinates from ORCA-job NEB_reactant E -30.203617168120
  C           1.96683581270110      0.34728539922071      0.08157932347821
  C           1.48068657386485      1.34014239684989      0.81570360967583
  Cl          2.56046446319311     -1.16326067880922      0.68945194731378
  H           2.00726081260038      0.41613543065743     -0.99119508414553
  I           0.77382019940495      3.04088349437212     -0.24109703768071
  C           4.13011755617732      2.13254353941685      3.63038611522260
  C           3.54414328181162      1.13468130086214      2.97891928625090
  C           2.08300780271619      0.84541861655172      3.09816271241679
  O           1.30477819998787      1.54821299099999      2.11397467654128
  O           5.42903427183883      2.47068256976790      3.55898183277013
  H           3.59164389529951      2.77499457015513      4.31312342423686
  H           4.11058022924561      0.51899756211474      2.29318091917040
  H           1.68653729390051      1.22784978481310      4.04096301850484
  H           1.88601779591262     -0.22726819471710      3.02644189721930
  H           5.89487181134552      1.89290121774458      2.93972335902532
