16
Coordinates from ORCA-job NEB_product E -37.697865400050
  C           1.21539691930007     -1.01893805518571      1.93570434736816
  C           1.35700090660510      0.22875268024691      1.09272234101668
  F           0.33163957503711     -1.86678889822116      1.33028901836525
  H           2.18439586753755     -1.54040107846427      1.99978506280625
  F           2.30335177221139      1.03287330197162      1.65679677714683
  C           0.72436578134668     -0.65693274741417      3.34902053760365
  C          -0.69422862961889     -0.17680483017392      3.35993629993009
  C          -1.04663793967152      1.01669266460427      3.79812421472603
  O           0.79920859462060      0.55399039977495      0.11568866603553
  N           0.87152299643649     -1.88160514903423      4.22903077692979
  H           1.40324003303863      0.09379875725686      3.77202211815766
  H          -1.42072978842553     -0.87725650635140      2.97487798445102
  H          -0.32852316852869      1.72161233780602      4.18503031644486
  H          -2.07303475474746      1.33606834587316      3.78667542558438
  O          -0.02168513128564     -2.11027246922511      4.99346191130120
  O           1.89391696614411     -2.50318875346383      4.10703420213262
