16
Coordinates from ORCA-job NEB_reactant E -37.682965204970
  C           2.27634653312352      0.16059814328908      0.34776020924418
  C           1.27306775191237      0.54873961512676      1.12727732280461
  F           2.98876498282589     -0.94110118248940      0.62547902602621
  H           2.58390497543754      0.68387366070819     -0.54026709912912
  F           0.59917119399110      1.66601322535337      0.79126588877259
  C           0.10242193566693     -1.42795452076403      4.49580887720051
  C          -0.53368640256733     -0.31634900802746      4.14846817014619
  C          -0.22198046579635      0.50627229872925      2.95213469403218
  O           0.85514503598221     -0.07227834157988      2.23435997905592
  N          -0.27781454573993     -2.15070609224917      5.67613266380316
  H           0.92265364535575     -1.86571314297896      3.94951230044433
  H          -1.34776332589757      0.04447668744602      4.76506403188982
  H           0.03247594464174      1.52823510153243      3.27040924092781
  H          -1.11675126428859      0.57308781965326      2.31528542546377
  O          -1.19741329590889     -1.72215190593982      6.33923270536209
  O           0.35685730126162     -3.14994235780963      5.92727656395575
