31
Coordinates from ORCA-job P E -42.206607726070
  C          -1.40158287089541      0.27742131416062     -2.18550227281479
  C          -0.20056417570163     -1.78304399716549     -0.77683001142449
  C          -1.64669546921290     -1.89951958767115     -1.13627227496782
  C          -2.21791254522750     -0.93358494653286     -1.83764848632527
  C          -0.74185097913580      0.73261686021658     -0.86999612826312
  C           0.14886649874189     -0.36739666553240     -0.26690998299440
  H          -2.17754992676698     -2.78905775125773     -0.83521906048835
  H          -3.25474404492002     -0.98564042296335     -2.12522074639263
  C          -2.18796862446572      1.38694396990172     -2.92091837186238
  H           0.08593870841032     -2.52373808058476     -0.03055035339594
  H          -0.59283853485268     -0.03645389776841     -2.85831688442694
  H           0.39135947130036     -1.97718867024581     -1.67769095840186
  H          -1.52849219298156      0.97961093761048     -0.15690906747510
  H           0.05087962387208     -0.35011904372608      0.82284619114794
  H          -0.14093057849628      1.62606584111953     -1.03681504070909
  C           1.61892494282172     -0.07272030386442     -0.55662573252848
  C          -3.36265286005575      1.90676328583461     -2.08895108897323
  C          -1.25841065512478      2.56002228148475     -3.25566811119812
  C          -2.71264581878161      0.81588316641245     -4.24405034143037
  H          -3.01298754545952      2.39742405389788     -1.18400478555860
  H          -4.03371312802167      1.10080221991243     -1.80462314073945
  H          -3.93069977060642      2.63307215528890     -2.66625349500416
  H          -0.98952347423821      3.12308644165798     -2.36562368808934
  H          -1.75649926565115      3.24360415065069     -3.93970525711170
  H          -0.34683556460315      2.20568350392675     -3.73185480644187
  H          -3.39327627214477     -0.01448550504353     -4.07993562238981
  H          -1.88705235713721      0.46223814108854     -4.85778296945517
  H          -3.24647463069130      1.58384430457779     -4.79959008602771
  F           2.42445745499214     -1.01908563214277     -0.01000980363585
  F           1.88231733892531     -0.08563134013169     -1.88723940031918
  H           1.95031724610824      0.90336321688875     -0.16726822230273
