31
Coordinates from ORCA-job R E -42.112868207900
  C          -1.64662069314933     -0.16978835530973     -2.77939189387099
  C          -0.39908768018760     -2.71588615341226     -1.73205803737144
  C          -1.60866247519313     -2.24880939765685     -1.44705820389380
  C          -2.12096552126902     -0.93268615057681     -1.79811917088015
  C          -0.62506064096656      1.20236785254021      0.83622773815926
  C           0.17587627788843      0.34005517347184      0.24243058890362
  H          -2.29250805949835     -2.87267053606846     -0.88310829472909
  H          -2.96139541165888     -0.60004073275147     -1.20435372148692
  C          -2.15482494582441      1.17856674683365     -3.21333231199415
  H          -0.09166483321959     -3.70472130322557     -1.43589038824484
  H          -0.82948725128064     -0.54187675078981     -3.38303024892970
  H           0.33380938120668     -2.13008926620319     -2.25903850811190
  H          -1.53135132143383      0.88195711479587      1.32077273458107
  H          -0.03391288882695     -0.71914035545552      0.20945342418854
  H          -0.41238197793692      2.25967004753084      0.86274852819524
  C           1.44885749519138      0.74746967361262     -0.43163000737312
  C          -3.09443586968221      1.82506247261866     -2.19420031390971
  C          -0.94923674109494      2.10023399061641     -3.43571166077621
  C          -2.90004974338586      0.99252912886191     -4.54401574625258
  H          -2.57348111121345      2.00593327093949     -1.25726056325988
  H          -3.95989595925520      1.19534624377026     -2.00802943132567
  H          -3.44909607897262      2.77932859542168     -2.57889831718486
  H          -0.40493255999737      2.24046484475525     -2.50447390799230
  H          -1.27801842942851      3.07309037984501     -3.79519666698595
  H          -0.26750179824481      1.67227967578323     -4.16635346160451
  H          -3.76531707413064      0.34857800845864     -4.40323741696930
  H          -2.24902615077662      0.53586268395116     -5.28574592805497
  H          -3.23880296272013      1.95309020844031     -4.92607745710093
  F           2.52415606803126      0.21707915838061      0.21193613833922
  F           1.50745711373182      0.26668394976682     -1.69934197264480
  H           1.59536184329799      1.83831978105517     -0.47701552141923
