31
Coordinates from ORCA-job TS E -42.099252198980
  C          -0.35448442974049     -0.21143520075514     -0.46654636986253
  C           1.00909848736800     -2.44664616597386      0.74883769414897
  C          -0.34271995511309     -2.34454909599202      0.71037503782682
  C          -1.01087900659548     -1.26278393786105      0.09734188987044
  C           0.67360901966396      0.44354850850537      1.49897907949805
  C           1.46384002286866     -0.55798525282400      1.96507717195365
  H          -0.93940314029174     -3.01099788739440      1.31952226416910
  H          -2.08070368733416     -1.20638514593797      0.24386404877180
  C          -1.06527485403722      0.94540715619590     -1.13354076560292
  H           1.48087668404988     -3.23172908499043      1.31689238302732
  H           0.66097171216687     -0.35048171814661     -0.80389752818294
  H           1.62259575449514     -1.99409648303992     -0.00835987133601
  H          -0.28922592142377      0.61868257563382      1.93883583469902
  H           1.18458489083605     -1.15569776276728      2.81628680741434
  H           1.09562548251926      1.22585666439530      0.89699049460057
  C           2.93873654431002     -0.54114270078068      1.68059029031778
  C          -2.20694404777802      1.51238135139376     -0.28575675522682
  C          -0.08103749888047      2.07267175827842     -1.46155293285970
  C          -1.63873052861839      0.40327958990090     -2.45493036251494
  H          -1.83689022058038      1.86655310326146      0.67314471774725
  H          -2.97523194094545      0.76571260222493     -0.10565019007817
  H          -2.66839616909504      2.35077248076390     -0.80322415516482
  H           0.24509719460418      2.58308545838580     -0.55860731812699
  H          -0.55704347340603      2.80910618412315     -2.10573221911294
  H           0.79465323735346      1.68497416077809     -1.97739656040378
  H          -2.34436076863392     -0.40147439628254     -2.26451366575650
  H          -0.84067764307957      0.01609912278236     -3.08426406033288
  H          -2.15229080529048      1.19517215156365     -2.99606124580031
  F           3.52963065984163     -1.73533622227604      1.93544214371420
  F           3.20968653799541     -0.25351284951051      0.37921853553915
  H           3.47528786277116      0.21095103634564      2.28863560706380
