19
Coordinates from ORCA-job NEB E -33.366714108710
  C           0.61478997382766      0.13441931578447     -1.46103291402829
  C          -0.50340440302734      0.60068948649592     -0.78427784513720
  I           0.35064236319657     -1.43675164235846     -2.84072099065399
  H           1.35179202092686      0.85059070902362     -1.79044500884346
  O          -0.38894628483928      1.88377636920963     -0.33463577244643
  C           1.50208559375381     -0.83368652469103      0.19559423548435
  C           0.44804442274585     -1.65759262731895      0.56666839772337
  C          -0.75410089278198     -1.09179516134342      1.02141010068705
  O          -1.39751879990496     -0.18129121288996     -0.32666843460088
  O           2.65517575899981     -1.31063483984111     -0.31115609692771
  H           1.67179599999911      0.10435469967146      0.71224670498594
  H           0.41338394841907     -2.65080536317583      0.13699328462050
  H          -0.69132476742413     -0.27138138298074      1.72549498011580
  H          -1.58743148796481     -1.75595110478604      1.19639451481732
  C          -1.36614636048612      2.35136772930491      0.57860715614722
  H          -1.60030873305054      3.37735437904250      0.29763606659320
  H          -0.96369277104740      2.33581638417036      1.59500520099670
  H          -2.26555655921111      1.73432005569754      0.53008539397146
  H           2.51072097786895     -2.18279926901487     -0.70719897350498
