19
Coordinates from ORCA-job NEB_reactant E -33.390795006920
  C           2.48977491731250      0.01503978046246      0.21758756841379
  C           2.15007795076229      0.45044466483350      1.43346053273894
  I           2.68496858607138     -1.92859188547184     -0.53863161689003
  H           2.67250807416318      0.76459352178874     -0.52939305327880
  O           2.08388183123778      1.80711314478356      1.54447744675322
  C           4.52359644525584     -1.12015131878818      2.85911981409088
  C           3.50311997662800     -1.95720496007411      2.73423508304664
  C           2.06274071913171     -1.54423665991889      2.79907452318402
  O           1.84466283806577     -0.16135991239962      2.59458464319728
  O           5.83044728814629     -1.45074299643958      2.80255504250499
  H           4.39685855357573     -0.05879553065971      3.01797129841419
  H           3.66844739456007     -3.01412531504476      2.57870642048528
  H           1.66330348746576     -1.71734398706468      3.80638464367354
  H           1.46503863847002     -2.13762661197077      2.09849795575573
  C           1.72850026346650      2.35099631391877      2.80142107271010
  H           1.74307915988560      3.42912426422609      2.65641917695681
  H           2.44597066755332      2.06963722654358      3.57612699312059
  H           0.73011608296435      2.02861336299709      3.10575263860329
  H           5.92500712528391     -2.39668310172163      2.63044981651953
