19
Coordinates from ORCA-job NEB_product E -33.416076840000
  C           4.11347577569787      0.18672306259911      1.68487234897475
  C           3.09425061359170      0.98051403999122      2.46384750268733
  I           3.70886086438345      0.16339382918818     -0.41439982807403
  H           5.09879205222468      0.64044426157861      1.79882446266775
  O           2.07430889631203      1.38852741811574      1.72565406867422
  C           4.17122634911827     -1.24580324029300      2.23401909727807
  C           2.81530750062335     -1.89198966723856      2.16959342270706
  C           2.01070847512786     -2.01144163855152      3.20781687903095
  O           3.20569575314997      1.18693813473976      3.64465585185640
  O           5.13539429933115     -1.92890379265110      1.47083298273036
  H           4.49306696643039     -1.16862584388112      3.28728292805947
  H           2.52928273610381     -2.24678219007034      1.18798827324802
  H           2.29159525207032     -1.65457642141431      4.18569112111686
  H           1.03647907335459     -2.46092290719012      3.11990499175247
  C           1.05043705988552      2.11281183325135      2.39270694719424
  H           0.30345444322301      2.34152397645146      1.63737645339979
  H           1.45656086907504      3.02953847693662      2.82410089895474
  H           0.62085657981422      1.50564964103269      3.19167650628468
  H           5.05864644048279     -2.87591897259470      1.62625509145686
