14
Coordinates from ORCA-job NEB_product E -30.637822186770
  C           1.68041828353807      1.96580253730357     -0.88595464923682
  C           3.13261865220222      2.37434670035948     -1.00254271341197
  Cl          1.22367800900988      1.39598426099459      0.73098753792210
  H           1.50601796499583      1.14777410391070     -1.59254187318414
  Br          4.04749898303341      2.72445937095912      0.65078689417225
  C           0.80178349947318      3.16267826004027     -1.32654101049990
  C          -0.65668892556116      2.82651815145785     -1.24015271829611
  C          -1.35501513820731      2.36543796872445     -2.25926513696505
  O           3.69486229930678      2.51576518656825     -2.03621250056081
  F           1.08343011583608      4.24106546285725     -0.52493107596573
  H           1.09551402554840      3.44535651489444     -2.34723333376157
  H          -1.09516985071619      2.98444571821950     -0.26644871791506
  H          -0.91536036388578      2.21374052725155     -3.23164662322232
  H          -2.39758755457340      2.12122523645898     -2.16010407907486
