18
Coordinates from ORCA-job NEB_reactant E -29.592981560600
  C           2.59256878894655      0.11194868934656     -0.14186564999443
  C           2.26788326252077      1.39609362331831     -0.24792415598516
  H           3.16447515443321     -0.28347757521253      0.67120409287439
  H           2.25741919276007     -0.56854235686165     -0.89837845741434
  O           1.52377696296594      1.82012099757681     -1.29663555218515
  C           3.25529908673853      0.38360220846257      3.50238870164436
  C           2.68859435335929      1.32319117851721      2.76870375491195
  C           3.41787524954606      2.10371521372258      1.71379718740810
  O           2.60944887697157      2.40994246941906      0.60353702367581
  Br          2.33064698627990     -0.54264432791759      4.86454145579201
  H           4.28456818662855      0.07578163987421      3.40411428608305
  H           1.65058399151575      1.59066748217234      2.90604671166580
  H           4.33196541736700      1.58384633504613      1.39989191177942
  H           3.69287581641843      3.08393390343804      2.12212613150477
  C           1.21840428306846      3.19724822538974     -1.37674718217441
  H           0.62762651789876      3.30916331534281     -2.28368355605668
  H           2.12520100455183      3.80344351578294     -1.44756757214345
  H           0.63638686802933      3.52736546258246     -0.51244913138606
