17
Coordinates from ORCA-job NEB E -42.871125370840
  C           1.06147211341819      0.26934252416497     -0.43459559049028
  C           0.25898233543173      1.40995075135432     -0.37877133197511
  C           0.85307955706988     -0.68113760763197     -1.58596890614015
  H           2.11550655414740      0.39242239502587     -0.20923050848898
  F           0.81815921493344      2.45630665515306      0.30941153694396
  C           0.27914907827385     -0.66569853488878      1.20298553045019
  C          -1.08613523819560     -0.62983116287765      0.93098998253986
  C          -1.73474199536131      0.61458167553953      0.86130246691583
  O          -0.98197133355549      1.42105292229626     -0.49317059308808
  Cl          1.08123830506375     -2.19508595954983      1.30056478811099
  H           0.70805444866267      0.05574638077332      1.89014556322093
  H          -1.54096361506931     -1.48304209670308      0.45122833604035
  H          -1.48747463035782      1.36986219706074      1.59773947777169
  H          -2.76667818732542      0.62633436658426      0.54242183282222
  F           1.66299798973654     -1.74239736105369     -1.51734124033639
  F          -0.38945458926112     -1.14826439529342     -1.71803975294265
  F           1.14877999238860     -0.07014274995389     -2.74967159135438
