17
Coordinates from ORCA-job NEB_reactant E -42.905176529260
  C           1.72021950753847      0.04361137058923     -0.04576041447530
  C           1.05936753698756      0.09465724146290      1.11250856792603
  C           2.02981701590530     -1.25867678671207     -0.69619722463297
  H           2.05184927852864      0.93776996573958     -0.53891011768255
  F           0.79743771592338      1.28852549697422      1.66429143718780
  C          -0.20353860066417     -2.48805833788075      4.75223825861416
  C          -0.48527804114419     -2.08660783426365      3.52359180783924
  C          -0.09996809486022     -0.74089763310485      2.99982947166536
  O           0.62784394327877     -0.94886025558869      1.78384694672383
  Cl         -0.66829187161373     -4.01985198732867      5.35548130780736
  H           0.31968378927481     -1.87656342102026      5.47256770806802
  H          -0.99875448934304     -2.72841122011369      2.82432162386253
  H           0.52153377950635     -0.19750546896188      3.71990968962205
  H          -0.99790086151864     -0.14659415240247      2.78345743584404
  F           2.84230558308734     -2.03898197783293      0.04079524282326
  F           0.93430418895379     -2.00094830724876     -0.94006719029841
  F           2.64016962015958     -1.08380669230728     -1.87440455089449
