17
Coordinates from ORCA-job NEB_product E -42.914535980820
  C           1.64971507680091     -0.83248203820698      1.30895596207781
  C           0.99992830267737      0.47864348446674      0.92397381419760
  C           1.30267022934143     -1.89411305166575      0.25888066844647
  H           2.73867045930650     -0.69641974085547      1.27932118536912
  F           1.49186035315724      1.46968938655724      1.71244417976903
  C           1.24378894196075     -1.18945277312739      2.76007821930248
  C          -0.17044379477949     -1.65407020698380      2.89257579420572
  C          -1.10271191109153     -0.94033636602560      3.49599958033270
  O           0.18907677656480      0.71810897438817      0.11142936665862
  Cl          2.35415648593782     -2.46202390744665      3.38883177847255
  H           1.42004950619679     -0.30820116253227      3.38394991150022
  H          -0.39022887225103     -2.62742841338575      2.48000606371017
  H          -0.89585453866993      0.02802484382090      3.92179003168832
  H          -2.11348195232616     -1.29678737560506      3.58140562838661
  F           1.80063479161019     -3.09506102580790      0.55733926028144
  F          -0.00802685646977     -2.05563775794914      0.07376683142329
  F           1.82539700203411     -1.55005286964128     -0.92684827582216
