23
Coordinates from ORCA-job NEB E -40.885747525670
  C          -0.01823772769047     -0.51764874154971     -0.93304133471565
  C          -1.33383309872540     -0.90404146861990     -0.36323656964405
  F           0.88019314654121     -1.56791280704419     -0.72929004338122
  H          -0.10265460820964     -0.47743266112957     -2.03526279649293
  C          -2.13163963866260     -1.89105090524969     -1.15036426375810
  C           0.57557540096888      0.81257462475770     -0.42298457729995
  C          -0.20186542686080      1.37608875560373      0.70285518689841
  C          -1.58587505595887      1.02588779532417      0.98939776295568
  O          -2.05886773370586     -0.20593072228385      0.53318533956443
  C           2.07508883900779      0.71980679326508     -0.06153038501559
  H           0.52089328391336      1.49907147434963     -1.28986662296449
  H           0.18930791444077      2.24700799101192      1.19837092719664
  H          -2.27404638946269      1.75616534292260      0.53460147337084
  H          -1.78334650413364      1.05478433192477      2.06910532360547
  F          -3.13339431055959     -2.42966093798358     -0.42901380324824
  F          -2.74810044682754     -1.29611405410467     -2.24005815474222
  H          -1.50914111987592     -2.70402885530771     -1.55372407771556
  C           2.34109137296387      0.01929837745830      1.26579370715636
  H           2.46141990215866      1.73983091607373     -0.00979578586786
  H           2.60076575974491      0.20054326834531     -0.86365043897839
  H           3.40590447615986      0.03981487327109      1.48424984207521
  H           2.01970817243975     -1.01670960081894      1.23141737491700
  H           1.81105379233395      0.51965620978382      2.07284191608422
