23
Coordinates from ORCA-job NEB_product E -40.949963922760
  C           3.43768715987564      1.00182957870408     -0.90855718413760
  C           1.98175222356893      0.59684891169405     -0.97080203134931
  F           4.01157065495888      0.38731616802728      0.17406574731571
  H           3.96961067598802      0.63465691616583     -1.79696027849740
  C           1.27195667236096      0.93848452456761     -2.30661601347800
  C           3.54861284043605      2.54348275020624     -0.81497787063791
  C           2.96759150816743      3.01277651049536      0.48820252414604
  C           2.03086908985208      3.93680803501683      0.57648361399456
  O           1.36888230285845      0.07956694780605     -0.08414983494848
  C           4.99559421086795      3.02944192977312     -1.02397244585240
  H           2.95848363096199      2.95687366844230     -1.63888307575476
  H           3.36199566423157      2.53288448108956      1.37193075094348
  H           1.61601295803962      4.41265814328854     -0.29739217099270
  H           1.63791862660885      4.25575110680082      1.52610360898971
  F           0.71180687745076      2.16756438245930     -2.22764803584191
  F           2.14023058066036      0.97989371403326     -3.34363748582316
  H           0.47819410940121      0.21212303807279     -2.53612422199484
  C           5.97279511341065      2.66844451180051      0.08788010587022
  H           4.95468625742407      4.11705698188411     -1.11827654370791
  H           5.35914146890304      2.62849488517568     -1.97363148309459
  H           5.67125934420857      3.12125626928679      1.02833605984715
  H           6.96236014938301      3.04178874119602     -0.16615010892903
  H           6.04038788038185      1.59379780401391      0.22627637393314
