14
Coordinates from ORCA-job NEB E -26.558504470800
  C           1.25456860579959      0.81620842236465     -0.07902163733054
  C           0.55600944630731      0.76726300010723      1.11771042200431
  F           0.93227080029107      1.78152250788823     -0.96184107439018
  H           2.32224915781478      0.61953712744553     -0.10060520054418
  Br          1.39158762228277     -0.39202082331741      2.45051927280867
  C           0.36469574543277     -0.73440732349849     -0.98997884991440
  C          -0.95674152593177     -0.37229663545088     -0.85147689832775
  C          -1.50222485693995     -0.29546895730827      0.47779828848057
  O          -0.71907610346261      0.88342418645781      1.18061245886394
  H           0.81964487263654     -0.68946337325307     -1.96864928033653
  H           0.78101387195287     -1.48950840531568     -0.33574816620139
  H          -1.42522443460871      0.22203919605342     -1.62205913057365
  H          -1.28527926509232     -1.14587397615740      1.12506535247064
  H          -2.53349393648234      0.02904505398431      0.55767444299049
