14
Coordinates from ORCA-job NEB_reactant E -26.576074250050
  C           1.90474761048149      0.00661106423744      0.27872267671645
  C           1.48796924435155     -1.25139410791154      0.17647316229561
  F           1.73883070397502      0.88498990644294     -0.72200446253125
  H           2.41154130017951      0.41639143117194      1.13622182468434
  Br          1.78446990579593     -2.35710257753462      1.72365258690201
  C          -0.74702858197029     -4.44321503478431     -2.44656406970642
  C          -0.50312228368505     -3.18315366516464     -2.14410778504545
  C          -0.11622638650904     -2.71477290762225     -0.77707518679570
  O           0.98315490518525     -1.81388692210662     -0.91275783777962
  H          -1.04199464370885     -4.73804401210028     -3.43815420048477
  H          -0.67390909757755     -5.22948926279581     -1.71323560642107
  H          -0.57026625002567     -2.39869021016296     -2.88383087612289
  H           0.16897268751783     -3.56141620609093     -0.14014958296680
  H          -0.96023911401013     -2.18712749557838     -0.30759064274446
