22
Coordinates from ORCA-job NEB_product E -37.291441287430
  C           0.54897751161827      0.28437011703350     -1.45273679170122
  C           1.08590264414402     -0.84249558102800     -0.59168157848869
  O           1.59795938958996      1.05025949717748     -1.97329231627760
  H          -0.15406857915265      0.90282844129462     -0.87529903257694
  Cl         -0.03107920813470     -1.28534737709016      0.70389333737863
  C          -0.21852272788240     -0.31688548477099     -2.65964931504391
  C          -0.96696186847591     -1.56885384333449     -2.28633159661563
  C          -0.59362126478838     -2.78312601309262     -2.64220698498347
  O           2.11688272302588     -1.40915194046809     -0.70523533572975
  O          -1.09050121195754      0.69895413156254     -3.10684535391722
  H           0.53804504225737     -0.53862204126336     -3.42830775904379
  H          -1.86600039214944     -1.39847897137757     -1.71000087200973
  H           0.29958544402889     -2.95400867352661     -3.22071962523085
  H          -1.15417895251723     -3.65607234393094     -2.35526919897629
  C           2.20474008680095      1.90949352324070     -1.03380935309565
  H           2.95128415172994      2.47585546283034     -1.58578224090963
  H           2.69409060504331      1.34858101917060     -0.23062993199909
  H           1.47019720172616      2.59616693456933     -0.59757864316494
  C          -1.57460542648391      0.48497275801431     -4.41041346248003
  H          -0.75244201193981      0.45032323446526     -5.13469988025819
  H          -2.22284615971837      1.32917202042816     -4.63496700204458
  H          -2.14713699676442     -0.44703486990401     -4.47913706283145
