22
Coordinates from ORCA-job NEB_reactant E -37.285952759340
  C           0.99687873515485      0.29844955825003     -0.24672199815332
  C           0.75633184190925     -1.00309503779695     -0.40377945960121
  O           1.66177770719173      1.02698828435203     -1.18428334108764
  H           0.66360931211824      0.81504562367066      0.64459381374970
  Cl         -0.22679266548147     -1.79403716619698      0.81920936318890
  C          -0.37425510569941     -1.28969610493841     -4.31381556802582
  C          -0.55490686836472     -1.45782983013934     -3.00890693237661
  C           0.24113526098869     -2.43741904021070     -2.20949435864531
  O           1.22077828831940     -1.77935808160731     -1.38740024985395
  O          -0.99366030115827     -0.42729080911022     -5.14472314872987
  H           0.32819397907306     -1.89682439340388     -4.86967459788961
  H          -1.24453231989194     -0.85022008768656     -2.44309205319704
  H           0.82707986585368     -3.09413476156729     -2.85322653466178
  H          -0.41319069563110     -3.03798469461716     -1.56447788749885
  C           2.21570321370504      2.23464018212050     -0.71544685218310
  H           2.60773857662150      2.74942880715904     -1.59041626671605
  H           3.03045917682961      2.05003585973721     -0.00773604892170
  H           1.45721199790873      2.86030820350436     -0.23211917264506
  C          -1.91458070334238      0.47592862428990     -4.57740226668701
  H          -2.27010799685879      1.09858468505097     -5.39635579205673
  H          -1.43445158759607      1.10276672090223     -3.81986534687205
  H          -2.75991971164963     -0.05238654176213     -4.12566530113587
