21
Coordinates from ORCA-job NEB E -53.404720360520
  C          -0.45396487155573      1.09907711337368     -0.18184240122713
  C           0.81612021665619      1.43811691614265      0.32930404297705
  C          -1.62656333880139      1.11416278734531      0.75126613016602
  H          -0.68886322590220      1.56439100108645     -1.13390807569691
  O           1.64568752461201      2.05892235983537     -0.54006938877457
  C           0.12782062904674     -0.80685607122627     -0.71776437815039
  C           0.62415246806317     -1.33239350275670      0.47414107992153
  C           1.75781256930935     -0.73524710514403      1.05434535273496
  O           1.30089294440777      0.90910602934479      1.37532099946678
  C          -0.96771193070711     -1.53238934086249     -1.44357258517624
  H           0.84448253715096     -0.40553456839530     -1.42932119295341
  H          -0.02063459209607     -1.93732300621991      1.08995402379587
  H           2.59343659161503     -0.50280807649008      0.40339171203282
  H           2.04947540867245     -1.06057673429651      2.04221071019095
  Cl         -1.50017022087817      0.04451878906874      2.14374435624966
  Cl         -1.76648693700114      2.80177823730924      1.40532675541455
  Cl         -3.14860362195642      0.79193898041463     -0.09431416111431
  H           2.53044627898725      2.13505284924233     -0.15351712676140
  Cl         -0.17850302142690     -2.90527214923009     -2.30601739289070
  Cl         -2.20300950061141     -2.21675939162978     -0.38505427912273
  Cl         -1.73581590758438     -0.52190511691203     -2.68362418108236
