21
Coordinates from ORCA-job NEB_product E -53.457159078050
  C           1.91926175298888     -2.15797494936155     -0.28801478796894
  C           0.40858983017321     -2.25031576976079      0.07179200238819
  C           2.17078714200008     -0.72053197384876     -0.74479929912151
  H           2.54806490513845     -2.33903368326098      0.58974145691143
  O           0.11334710709993     -2.19115951006448      1.36360676525346
  C           2.22388244273328     -3.21692475838297     -1.37467903154644
  C           3.46585548122827     -2.95493668205107     -2.18336560320149
  C           3.44427468432898     -2.72522791306700     -3.48208510659594
  O          -0.42969968305680     -2.33625871618279     -0.77200471373609
  C           2.35574859102877     -4.59895596945040     -0.72311063794241
  H           1.35746219721507     -3.25091615749559     -2.04666159253050
  H           4.39780766436198     -3.00638943648342     -1.64095605011056
  H           2.52397211446226     -2.68247814803827     -4.04010136321921
  H           4.35084013891021     -2.56010349630796     -4.03695712093412
  Cl          1.39210831284053     -0.37187827623403     -2.28946922821286
  Cl          1.50207375543783      0.40215294112396      0.48678948411631
  Cl          3.90756072738506     -0.35993451791393     -0.86862844610770
  H           0.87687186595546     -2.08305343875072      1.94722441870706
  Cl          2.63431724680781     -5.82066066390243     -1.98039334572811
  Cl          3.72627104085902     -4.64817778560485      0.41497742449485
  Cl          0.88660268210172     -5.05054109496198      0.18059477508457
