16
Coordinates from ORCA-job NEB_product E -31.108966800210
  C           2.82806564289977      1.51108125128729     -0.49847176306065
  C           1.59126510588239      1.10647510925391     -1.26963849420066
  I           3.08086172400710     -0.08666559933160      0.96516986772202
  H           3.71582562717305      1.43989732271748     -1.13249755098027
  C           1.81500740530719     -0.08683905917950     -2.07229225539505
  C           2.71062752480827      2.90498600994069      0.12381966881972
  C           1.60757279633474      3.03947560614958      1.14354645041023
  C           0.67247674264211      3.96635850996417      1.08652457735340
  O           0.54189525933766      1.68923715605491     -1.23921522874561
  C           3.96931519536338      3.25893555558541      0.75019690972222
  H           2.52925489941039      3.61314003457757     -0.69772202825000
  H           1.64652599211859      2.33303071525733      1.96187100617138
  H           0.62018990436897      4.68386028688612      0.28415690963849
  H          -0.09135571454797      4.03608528933424      1.84054438455125
  N           2.00193501313307     -1.00706280447430     -2.72523003786319
  N           4.96033688176128      3.52090461597668      1.25283758410672
