16
Coordinates from ORCA-job NEB_reactant E -31.109922860190
  C           1.66402813021177      0.23850705127111      0.10128483576611
  C           1.27336539020086      0.91831700714947     -0.98550562081166
  I           1.84174652894838      0.81839598719214      2.11046261303433
  H           1.92122562833379     -0.79942843112134     -0.02933452177444
  C           1.24973457498110      0.12950859006136     -2.18137882430343
  C           2.89098326514733      4.18086388908734      1.05310537329629
  C           2.44417058372443      3.59745872133921     -0.05694973596986
  C           1.01478792977023      3.21665066430622     -0.28385289358987
  O           0.87343753186013      2.18195451856980     -1.23763317911638
  C           4.23959673810355      4.55628687022387      1.21024111060406
  H           2.24212311532694      4.39552238712327      1.89235777943374
  H           3.11527912940672      3.39145096376321     -0.88119212012738
  H           0.49022640798066      4.06060555685261     -0.75027695072725
  H           0.50184979462669      2.97767981799746      0.65398176214620
  N           1.23631884222758     -0.51173294929747     -3.12867843620435
  N           5.33512640914985      4.86575935548175      1.34246880834390
