22
Coordinates from ORCA-job NEB E -48.239669943750
  C           0.58036366198100      1.81073265043120      0.95538459402616
  C          -0.34298518088833      0.92126305300538      1.39246521588180
  N           0.91081031302651      2.29575525295737     -0.33222895924010
  H           1.24857526926420      2.22273362106454      1.69837436609083
  C          -0.28355109300265      0.72445215053978      2.92323025891982
  C           0.26503730980317     -1.23941699948644     -1.62311801501450
  C          -0.88234580298051     -1.29712879511992     -0.96497098496461
  C          -1.59542545644547     -0.06832106803447     -0.47999499650911
  O          -1.27825576073983      0.14956852942211      0.91056319228524
  C           1.01477486010665     -2.42914716933850     -2.11883866351897
  H           0.70159869395295     -0.27748378012434     -1.86375718397181
  H          -1.34274999685046     -2.24537463384164     -0.72727604226225
  H          -2.67569821486055     -0.21517517606733     -0.47960451699797
  H          -1.32219345108813      0.79254319000593     -1.08643358684880
  O           1.91942934423264      2.96413192636083     -0.38955424381307
  O           0.20989341852517      2.04305488510999     -1.29299158170571
  F          -0.63094091940680      1.84222470817154      3.56753480638727
  F          -1.08585526140043     -0.24273559424025      3.33873662810720
  F           0.95330854832570      0.41808380055104      3.33097973127164
  H           0.52837184169313     -3.35587484883982     -1.82299019488881
  H           2.02953086513945     -2.42188392985842     -1.72846618657132
  H           1.07830701161248     -2.39200177266907     -3.20704363666243
