22
Coordinates from ORCA-job NEB_reactant E -48.244436850890
  C           2.26853585929476     -0.68324794862981     -0.26972874635355
  C           1.52701547698798     -1.43721467256911      0.56265704692129
  N           2.03604289967250     -0.44085287926533     -1.65551143514211
  H           3.16786510573706     -0.21201108996078      0.09775602741029
  C           1.97229339311400     -1.49769347227880      2.02765544396568
  C           2.24425047113749     -3.76845722578287     -1.37121006277037
  C           1.08595930568409     -3.26897960027695     -1.77174669012479
  C           0.03840687574081     -2.65143957376522     -0.89111867171158
  O           0.50518848770319     -2.25642665478928      0.39779694624146
  C           3.26348028978001     -4.35013929180355     -2.28669890764810
  H           2.51495067126954     -3.76808896621982     -0.32207079214375
  H           0.81782722935902     -3.27590276368120     -2.81860747897846
  H          -0.75266213777185     -3.37371932793293     -0.66501413091422
  H          -0.40452346360462     -1.79021507776059     -1.40754335323752
  O           3.01581896886586     -0.36688857548921     -2.36192127368962
  O           0.89176892593907     -0.27703830641311     -2.02881282058216
  F           0.93635784686413     -1.55865645404191      2.85903789244204
  F           2.72345408045525     -2.58672391458876      2.24754606603083
  F           2.70992045978288     -0.44382149272961      2.38610518408290
  H           4.17337181800100     -3.75152434035774     -2.25220122383330
  H           2.90096296136284     -4.37679474047665     -3.31048629658392
  H           3.51991447462501     -5.35946363118676     -1.96918272338102
