23
Coordinates from ORCA-job NEB E -60.065007704950
  C           0.11430054919154     -0.34856405883111      0.89018293354422
  C          -1.24029405477269     -0.39603381448825      0.47384121081263
  C           0.43517132775465      0.53839607746316      2.07951701305547
  H           0.55666475032301     -1.32639440493081      1.08347973937544
  C          -1.82992027678253     -1.72768709136517      0.00744007476065
  C           1.01278723048150      0.50808320082498     -0.52794669476080
  C           0.03759578912680      1.03904737675018     -1.40093687084097
  C          -1.03375681548151      1.75633546083518     -0.78129179271379
  O          -1.83998087826967      0.65343384578204      0.01876647568780
  C           2.00708078067961     -0.44779983806921     -1.13935127484728
  H           1.52727116110042      1.25232649142509      0.07978617707385
  H          -0.21056405233644      0.47018104366873     -2.28947219203096
  H          -1.80066164863027      2.13491038364199     -1.44840331064928
  H          -0.75278637728383      2.49088273444656     -0.03146781131496
  F           1.75436185120519      0.66169394630959      2.28273965430307
  F          -0.04474540683140      1.78354822171111      2.00010957074073
  F          -0.07206064508514      0.00135647854804      3.19313564321972
  F          -1.10390482621143     -2.76789333955668      0.46362826192647
  F          -3.07956535388300     -1.87738491280685      0.49137252863881
  H          -1.88630648712836     -1.79763656938722     -1.09414876015779
  Br          3.06213777155500      0.52543908821716     -2.48151652104533
  Br          3.25926097631595     -1.18334310416123      0.16501813644476
  Br          1.12791463496261     -1.94289721602726     -2.03448219122246
