23
Coordinates from ORCA-job NEB_reactant E -60.107731941820
  C           1.83876649267272     -0.42818603932489     -0.73608155620105
  C           0.92728533044663     -0.24201288644663     -1.70045077211128
  C           3.15871311943107      0.21813367215436     -0.47732456242120
  H           1.64459448701425     -1.20154575398753     -0.00967471066489
  C          -0.31860526637696     -1.13154088494867     -1.66570022444813
  C           4.16214695333284      1.74257062149668     -3.56385188983132
  C           3.03174316166540      1.05487792327557     -3.59342447573518
  C           1.73309168963164      1.59429782513247     -3.08338698480568
  O           0.80516485422316      0.58012108839357     -2.73646645990844
  C           5.46756662293424      1.28684824013174     -4.08531277252999
  H           4.19361890474604      2.73831830343945     -3.13769474415492
  H           2.98120648214780      0.05865597852238     -4.01302828518474
  H           1.22464281251148      2.12538739071366     -3.89753784502491
  H           1.87839240427504      2.29528731101378     -2.25599665943850
  F           4.12484603617258     -0.20207568095091     -1.32089950511835
  F           3.16890831630073      1.56165776677365     -0.55256738485008
  F           3.58580953119603     -0.08631484435291      0.75184000097328
  F          -1.41306866220532     -0.37651866328232     -1.43179646396411
  F          -0.50054962901685     -1.72290190392912     -2.86243931308438
  H          -0.27088645322343     -1.91529853197841     -0.89628467467347
  Br          5.98042498250785      2.44685371041589     -5.60367072747075
  Br          6.84113117121560      1.48237762544846     -2.69453758377404
  Br          5.50155665839743     -0.54629226771025     -4.70701240557786
