23
Coordinates from ORCA-job NEB_product E -60.111150359110
  C           2.67766253120888     -0.01674087626997     -1.81221023968991
  C           1.31715390926011     -0.51219063993507     -2.31895706502397
  C           2.41039384145443      0.67637922321749     -0.47182203532504
  H           3.33072944500459     -0.86636191132359     -1.57815034821953
  C           1.10614097810694     -2.03509125040235     -2.17783891295747
  C           3.41736852718346      0.95329842707895     -2.76387135699487
  C           2.54820030043676      2.07798772772787     -3.25990578485608
  C           2.78537285772662      3.34283059953882     -2.96719539730225
  O           0.42938800933852      0.20725492975257     -2.66483622089532
  C           4.02448300383037      0.19518376148517     -3.94412619555702
  H           4.25907294967815      1.38282947217058     -2.20060845166752
  H           1.71006983281595      1.79898837078107     -3.88140065329909
  H           2.15182061202203      4.12734951179382     -3.33917397481816
  H           3.61222606895938      3.64512454565314     -2.34507497624071
  F           3.54605380515812      1.10428110962130      0.09072037790088
  F           1.59735825708333      1.72395087482200     -0.55303485112334
  F           1.85303439888884     -0.18762240593124      0.39162510321196
  F           0.24684522256726     -2.48337128294126     -3.10413608155201
  F           2.26013357500300     -2.72238475307848     -2.32817159721275
  H           0.69902033771193     -2.26187561419972     -1.17582035841519
  Br          4.91831713537179      1.45175857520964     -5.13222628282062
  Br          5.37358644125788     -1.09521434940013     -3.34202232153069
  Br          2.67346795993165     -0.76826404537061     -4.97136237561130
