29
Coordinates from ORCA-job NEB E -46.696748819100
  C           0.05076603090982      0.27791328277209      0.39125630874524
  C          -1.14567445929698     -0.39044461716382      0.07307778459770
  C           0.02256649994394      1.79530688060494      0.54191345676004
  H           0.59541253886042     -0.18344621386401      1.21079313915579
  C          -1.50713921693009     -1.69910009476688      0.72341296039045
  C           1.07711170879500      0.01542291667470     -1.20427006789798
  C           0.21087077273921     -0.34284111836151     -2.25714495901445
  C          -1.04568314417333      0.37975842956576     -2.25556468700127
  O          -1.79905395696844     -0.10302858077103     -1.02929252611633
  C           2.22386862470715     -0.92357662734388     -0.93470797894267
  H           1.43539983344920      1.03928873031737     -1.23325927989343
  H           0.13479172083272     -1.39412801788890     -2.50596079768679
  H          -1.72515086681131      0.12473818420357     -3.06454630071727
  H          -0.94406705760930      1.46307248509209     -2.16592971016130
  C           1.32293056688377      2.37895089614357      1.08025333510100
  H          -0.77145686561098      2.02295045022939      1.25949460437764
  H          -0.24540890163658      2.28853325942448     -0.39337352277083
  H           1.59419535354991      1.90160575386670      2.01860838722192
  H           1.19885837797312      3.44430282890376      1.26072483747819
  H           2.14849902258325      2.24965838441710      0.38553111585170
  C          -1.93477757600530     -1.50194562436645      2.17787063141492
  H          -0.64612408514614     -2.37110875486424      0.69159803449669
  H          -2.32137008689691     -2.15101148592087      0.15573005236101
  H          -1.13304615310857     -1.05122239575379      2.75739268919859
  H          -2.18693624167210     -2.45979578048133      2.62520692363316
  H          -2.80644495917953     -0.85441241053758      2.23317819595708
  Cl          1.68248236078244     -2.58397110997548     -0.63102030662006
  Cl          3.30600313399791     -0.95514898628069     -2.36437886200668
  Cl          3.20857702503769     -0.41632066387507      0.45340654208793
