29
Coordinates from ORCA-job NEB_product E -46.754086775350
  C           2.56007974019115     -1.29545912004695     -1.30345209996926
  C           1.31597250287467     -2.09766441023343     -0.91553100919331
  C           2.20658618770272      0.19344670460703     -1.13905853860584
  H           3.37442228720979     -1.54151695154151     -0.61658621546013
  C           1.50968597377641     -3.00549408917686      0.27686320184188
  C           3.04379078572367     -1.58606890532932     -2.74168155662239
  C           2.01732133873558     -1.21787292593105     -3.77720780425484
  C           2.27933818122519     -0.43687223814148     -4.80743045948607
  O           0.25534629187098     -1.94692871528682     -1.46525896966029
  C           3.46115393819834     -3.04541737277510     -2.93212242007612
  H           3.95242004408828     -0.99786465309887     -2.91191791617933
  H           1.03065722085800     -1.62814949385292     -3.62322688547998
  H           1.52448441280637     -0.18818523957678     -5.53267986279509
  H           3.25838071439722     -0.01671732065554     -4.97464974714275
  C           3.40253975860482      1.12294408424147     -1.29813586919100
  H           1.78586796077722      0.32677461848209     -0.13935893072430
  H           1.43151634064189      0.45311203689751     -1.86122587767174
  H           4.22255277047896      0.80848244152924     -0.65597122520046
  H           3.11966013959521      2.13497227088959     -1.01982820904566
  H           3.75245259149821      1.14566076387553     -2.32624566018246
  C           0.28470328753656     -3.86482148511067      0.55557054191677
  H           1.72681821248306     -2.36129291172505      1.13456825846378
  H           2.39120197751974     -3.62788708362327      0.11119911202718
  H          -0.59120905743255     -3.23582271834940      0.69142201125896
  H           0.43375906743326     -4.46349465497333      1.45026454103683
  H           0.09595154893804     -4.52884785076291     -0.28413715752649
  Cl          2.09999933607832     -4.17254332454229     -2.79674130716137
  Cl          4.18208963432633     -3.24888488001566     -4.55150085082604
  Cl          4.69915681186254     -3.52398657577324     -1.74123909409048
