29
Coordinates from ORCA-job NEB_reactant E -46.734338048130
  C           1.91465200165782      0.07383544407720     -0.02061503696764
  C           2.22797935906170     -0.83935775029968     -0.93717860880252
  C           1.28066204467801      1.39869820633183     -0.30509737490267
  H           2.11671024975126     -0.14594885661663      1.01682561940820
  C           2.83257304240587     -2.16648796670915     -0.56065291456155
  C           3.05590441122809     -3.52858817287490     -3.89594638876872
  C           2.22164179902556     -2.53059897090937     -3.65070560247177
  C           2.65585901369040     -1.13976725780283     -3.29230191092693
  O           1.89008205072660     -0.57807932206824     -2.25307942606867
  C           2.66605602323067     -4.92048025861522     -4.23472582598638
  H           4.12788756500864     -3.38850613212902     -3.85393338884898
  H           1.15073520845780     -2.66840288730348     -3.69410001366668
  H           2.46007771616803     -0.49020714067244     -4.15561950439249
  H           3.73001350057435     -1.10361062148166     -3.07208364117173
  C           2.03688818479079      2.53591862513814      0.37866839168984
  H           0.24841128590759      1.38906223892421      0.05835829318307
  H           1.25403583158311      1.55772413854674     -1.38321464609412
  H           2.05585599992319      2.38798304134579      1.45643013468463
  H           1.55900349815923      3.49042234674457      0.17048722727855
  H           3.06314830131510      2.57816561642317      0.02063090383601
  C           1.75398459562991     -3.23929431622117     -0.39464610969022
  H           3.36285642443745     -2.04530451204256      0.38479599953679
  H           3.55435219110753     -2.49663243573191     -1.30825302362611
  H           1.06112037014902     -2.95352356281733      0.39275702217143
  H           2.20899511071229     -4.19190476548300     -0.13382102649726
  H           1.19169529114137     -3.36920463029174     -1.31553325711161
  Cl          3.39266679091220     -5.38458578376677     -5.80351205462645
  Cl          3.31416479330058     -6.02407866792790     -2.98054193401516
  Cl          0.91988734526582     -5.17264564576665     -4.33739190259085
