22
Coordinates from ORCA-job NEB_product E -32.899349718430
  C           2.28925137107733      1.84827983133997      0.16033838801398
  C           1.00524960675949      2.31862784049626     -0.54460675209474
  N           2.02429948097262      0.84330924664565      1.17143278247490
  H           2.96963103672486      1.42471810092997     -0.58694466201941
  N           1.21820349521518      3.09870581545802     -1.62309525300473
  C           3.00170866501350      3.05454858999232      0.81171416071876
  C           4.09460082010120      2.56081373263554      1.71699570996195
  C           4.13889104443351      2.78908952847234      3.01505660824101
  O          -0.09455222345925      1.97782740984095     -0.16390500071040
  O           3.51736949837903      3.86222010580141     -0.24015830886673
  H           2.27101432615960      3.63823941695024      1.39688559124028
  H           4.86884707089586      1.99844544054860      1.21582108568541
  H           3.36830337890891      3.34911255946524      3.51989557945129
  H           4.93684323767143      2.41333177568994      3.63192897557227
  H           1.34729343667899      1.21225596847927      1.83388573007516
  H           1.58341901832983      0.04010771958843      0.73408108181043
  H           0.42336730392524      3.52015952817038     -2.07730126921491
  H           2.13324269814976      3.49749910025023     -1.76156076485818
  C           4.01818147825544      5.10118358020757      0.19996400207595
  H           3.22993729169604      5.69638986655527      0.67693882764604
  H           4.38082310260978      5.61946278913290     -0.68581082854181
  H           4.84017486150169      4.97067205334949      0.91094431634349
