22
Coordinates from ORCA-job NEB_reactant E -32.872794678830
  C           1.79953653691579      0.34042914027519     -0.13681531424778
  C           1.68080867183368      1.65622160705843      0.06412547518447
  N           1.80538037779764     -0.60879783517225      0.89873070785603
  H           1.97300815341650     -0.05032928016457     -1.12707249781265
  N           1.86266106884169      2.62551587406323     -0.94457811104887
  C           3.18869670944058      4.94069388553462      1.84867006343921
  C           3.31748443484948      3.68305432449327      1.44486799935646
  C           2.55787163717832      2.55843429116675      2.07588289159722
  O           1.40721149595665      2.17172432537245      1.31594466737290
  O           3.77870417878941      6.05101324727213      1.34695817996746
  H           2.56589260846511      5.20771007894922      2.69267512603343
  H           3.92031460666558      3.41351700711300      0.59246010966851
  H           2.15256327539438      2.85561289378644      3.04597866901437
  H           3.21268750263456      1.68549890621717      2.20020631095286
  H           1.30463443259605     -1.45477975913735      0.65980440165273
  H           1.44433022154566     -0.20867901391863      1.75681164511156
  H           1.31990762944249      3.45772791904888     -0.75096784687466
  H           1.67185700736448      2.26748466019641     -1.87023800064749
  C           4.61564282178671      5.88777210849674      0.22573647822651
  H           4.96015267370349      6.88533905284724     -0.04120144253027
  H           4.06999591478359      5.44844096082426     -0.61498599373999
  H           5.47575804059817      5.25439560567736      0.46420648146800
