16
Coordinates from ORCA-job NEB_product E -30.517173606000
  C           1.46885251325263     -1.93851432146812     -0.41408562975627
  C           1.03188979392424     -0.83669705119525      0.56046448944201
  O           0.97725379975612     -1.66040191892846     -1.68399240966360
  H           2.56596119397031     -1.98933836492758     -0.47550853851377
  O           1.67926544374731     -0.77200625066095      1.72399010371132
  C           0.92329193257727     -3.27131788900597      0.15324132199176
  C          -0.55944691346881     -3.35212255763566      0.07132888928236
  C          -1.33468827808318     -3.55332424601485      1.12064077971504
  O           0.12804590367553     -0.10241254273297      0.28278747187910
  Br          1.71667408106724     -4.76501257693012     -0.88320899568150
  H           1.27582973946423     -3.42683655400293      1.17633016147032
  H          -0.96920890375418     -3.24125694984868     -0.92274763839050
  H          -0.93412971843408     -3.67651180225442      2.11397797722604
  H          -2.40498133477034     -3.59896830719541      1.02685283235057
  H           0.24316785970117     -1.03054217058532     -1.58891232999873
  H           2.42582288737455     -1.38333649661331      1.79114151493586
