16
Coordinates from ORCA-job NEB_reactant E -30.496396686410
  C           2.01217185284359     -0.06207300514232      0.08528318564575
  C           1.31259968205321     -1.01471469504378      0.69928719000793
  O           2.24887254884045     -0.03620795961763     -1.26522121247576
  H           2.44878996393288      0.77147588663525      0.60734504144849
  O           1.06980276352955     -1.05339992472989      2.04712221556967
  C          -0.37215745586881     -5.31443059768212     -0.15392583528627
  C          -0.49518899781590     -4.00589261121612     -0.27750379414912
  C           0.07395253598614     -3.03535648623490      0.70583551455296
  O           0.77940295982598     -2.04780062823442     -0.02520403086313
  Br         -1.13337250382609     -6.52711697746209     -1.38368851764283
  H           0.14562870272697     -5.80118453995142      0.65731729120486
  H          -1.01692833267260     -3.56660850647479     -1.11528316748882
  H           0.74231276094430     -3.53444635834440      1.41800038055083
  H          -0.74205973574356     -2.56348689383988      1.27200822103378
  H           1.83395285727886     -0.81496575887735     -1.65490231362665
  H           1.47852039796505     -0.28979094378414      2.46572983151832
