19
Coordinates from ORCA-job NEB E -40.754531846540
  C          -0.13182815210531     -1.24574245534375      0.65079641372232
  C          -1.45396102647311     -0.80212760220128      0.44342973334929
  O           0.36615677987278     -1.25992469272327      1.92213346975711
  H           0.22603500952208     -2.04245709123060     -0.00133778602543
  O          -2.04767696382031     -1.10947373533327     -0.74527784029592
  C           0.75834339485058      0.51903056359715     -0.06879817444437
  C          -0.26299323899647      1.43000860537457     -0.33054194508955
  C          -1.13760905304321      1.72471108335113      0.72158614963830
  O          -1.94338011896240      0.17657892993406      1.06572252184814
  C           1.68061322139338      0.09783953044979     -1.15756828424935
  H           1.25404646567322      0.62654119781517      0.89267333553007
  H          -0.62435194436468      1.53623147100631     -1.34585430104769
  H          -1.99437505285689      2.34867321021571      0.51910310547847
  H          -0.72338816875122      1.83140785593105      1.71479356520264
  H           1.21705893064212     -1.71450016110738      1.94508236898394
  H          -1.63763399470844     -1.85823176829617     -1.19494026450532
  Br          2.74336058043547      1.64371626621897     -1.81166478417476
  Br          2.96894642880712     -1.23874374335763     -0.52613463953175
  Br          0.74263690288528     -0.66353746430055     -2.69320264414612
