19
Coordinates from ORCA-job NEB_reactant E -40.788302902970
  C           2.23167347248095      0.13837241022611     -1.00596552730134
  C           1.15300219163193      0.78166023980666     -1.45850980219893
  O           3.33261531329114      0.74542653954764     -0.41675351264023
  H           2.25359285804385     -0.94138455082212     -1.06074245464254
  O           0.08055766529994      0.10917359494168     -1.96569463074198
  C           4.25653107904794      2.89220939437653     -2.28321668411020
  C           2.94885419487884      2.84872057047502     -2.47816378999778
  C           1.95154383792953      3.01839524385199     -1.37422728108474
  O           0.87902031279394      2.11203422077144     -1.50159382243670
  C           5.29804102929895      2.63990491697995     -3.29759688306437
  H           4.65666405718221      3.06884237596729     -1.29212355321667
  H           2.51818933834186      2.65026718259879     -3.45099653077460
  H           1.48035945161861      4.00450298534111     -1.45036911665291
  H           2.43690935447565      2.92106490039140     -0.39761361516087
  H           4.08223046440713      0.14441216457922     -0.47550957466381
  H           0.18809247227471     -0.83989604157660     -1.84375425306032
  Br          6.66542052983465      4.05530759205974     -3.25245479594457
  Br          6.19410200642875      0.93465065299081     -2.83765577790379
  Br          4.65290037073942      2.48413560749331     -5.11955839440364
