20
Coordinates from ORCA-job NEB E -40.577219370830
  C           0.86315745280339      0.63870711662300     -0.42638822322007
  C          -0.27216963645172      1.10794557189211      0.29452978456446
  N           0.86373102956996      0.76213707971517     -1.79050897842158
  H           1.84475873542002      0.76567065963947      0.02232708433473
  C          -0.08982889769081      1.67382256994254      1.68114949081724
  C           0.47862289778941     -1.31836221914628     -0.00940156142811
  C          -0.81848589290523     -1.48424462465688     -0.52494955337141
  C          -1.89657471298361     -0.91341488258732      0.13295059876306
  O          -1.44302203343895      0.87105280208684     -0.10957521984066
  C           1.56790965391878     -1.87791333244995     -0.72216390976357
  H           0.61772853836134     -1.30708752013384      1.06576419058084
  H          -0.91954790308174     -1.74832356338654     -1.56956432667797
  H          -1.90724318262677     -0.87019717611836      1.21269602378419
  H          -2.87103460714714     -0.92614527389471     -0.32710652074679
  H           1.58441101475085      0.26302849899259     -2.28981594062678
  H          -0.04967671477941      0.72012459724041     -2.22176315678593
  Br         -1.80262477217217      1.80221689925713      2.56902533128786
  Br          1.13527624088626      0.65128460561161      2.84320699975418
  Br          0.67781248525210      3.48134234614285      1.51309714968228
  N           2.43680030452544     -2.29164415476988     -1.34350926268595
