20
Coordinates from ORCA-job NEB_product E -40.601213350970
  C           1.44701749031273     -1.56527622537460      0.71369226414154
  C           1.81174578355916     -1.43724176550288      2.18495536504582
  N           2.22152085435190     -0.66688210213194     -0.10070705392503
  H           0.39129437379927     -1.25593119982604      0.66348847932290
  C           2.33172233739416     -0.08620631545626      2.63835106701351
  C           1.51293261982979     -3.07425857737366      0.31717666754905
  C           0.90463935118186     -3.30660986229702     -1.03924830736884
  C          -0.19925422081874     -4.00302280940824     -1.22780601651810
  O           1.68564824923496     -2.32384654079423      2.98090868547053
  C           2.90234609337917     -3.47335295570822      0.31268932035442
  H           0.98370263131336     -3.65689382593495      1.07907889502847
  H           1.43384113359677     -2.86230997600426     -1.87206089114426
  H          -0.73138736619210     -4.46253064509097     -0.41098636375068
  H          -0.61487069905434     -4.14485346206345     -2.21002985095511
  H           3.14246502248630     -1.04120848767312     -0.30626210154142
  H           1.75867288652499     -0.44248703972752     -0.97170511441893
  Br          1.37197604941705      1.39017592823579      1.85838909890539
  Br          2.20238012664181      0.02470548713038      4.56381673994028
  Br          4.21035531866688     -0.01102388110008      2.13120380396527
  N           4.01445196437500     -3.73344574389874      0.28315531288519
