17
Coordinates from ORCA-job NEB E -29.712371884830
  C           1.01134962764264      0.82287771578927      0.49354613763808
  C          -0.38163779259951      0.90510045451383      0.46863741042143
  Br          2.00869321234868      1.95289019235206     -0.68704298775785
  H           1.51030299678196      0.75623830204080      1.45289038374102
  C          -1.16722421933761      0.40242762825393      1.66296615416028
  C           1.19156212769829     -0.93775480509589     -0.32852431122488
  C           0.50641175788877     -0.77696060609837     -1.52497748044772
  C          -0.88840356242508     -0.48410702513798     -1.46863292280204
  O          -1.00141053225287      0.92543938479377     -0.67686133852765
  H           2.26502848152562     -1.06332317577648     -0.36941695953755
  H           0.72214097991710     -1.49586321314736      0.47224136165687
  H           1.05454625279251     -0.43717058440679     -2.39198461242878
  H          -1.49542571814536     -1.13008935333105     -0.83695424967912
  H          -1.37387763055996     -0.25091551082001     -2.40825225734090
  F          -0.41023097104903      0.38181318976109      2.80215196395793
  H          -1.52381189303266     -0.62512827551317      1.49442671160039
  H          -2.02801311719348      1.05452568182233      1.84578699657049
