23
Coordinates from ORCA-job NEB E -42.501419858520
  C           0.37483342873297      0.55472459613090     -0.81246474662104
  C           0.31857531174433      1.97927045680017     -0.38988364040931
  C           1.40109097307647      0.23742228205407     -1.88424245702057
  H          -0.61217553673690      0.29694652665327     -1.22378978221805
  Br          1.62552085462344      3.28068361892496     -0.68657450383139
  C           0.53223659024493     -0.22833468270483      0.53877026686374
  C          -0.27450952800293      0.52785670534323      1.52418069901043
  C          -1.18047927998488      1.66811943610933      1.27398868023667
  O          -0.82814237008154      2.44037451070968      0.14590321330752
  C           0.18411572466297     -1.73087266027054      0.58064316481448
  H           1.60044515551135     -0.14853895918530      0.78479202943430
  H          -0.54454985422915     -0.02799483558581      2.41219345112773
  H          -1.11891850698942      2.37237964011063      2.11380550870922
  H          -2.23762204838655      1.35383909685502      1.21049451975288
  Br          1.18690078661015      1.43494631345243     -3.42776911941511
  Br          3.23704701906710      0.33184657646004     -1.26075067756817
  Br          1.13406811553893     -1.55716817782862     -2.62147957260141
  C          -1.23162079469692     -2.04264085650393      0.11156201285387
  H           0.29273977576372     -2.04659418772864      1.62045434916384
  H           0.90343473672043     -2.30615105968115     -0.00149479971515
  H          -1.95339032649383     -1.40971484996811      0.62404124134464
  H          -1.47191312360683     -3.07974966098316      0.32905890994064
  H          -1.33768710308786     -1.90064982916363     -0.96143874715975
