23
Coordinates from ORCA-job NEB_product E -42.566305774570
  C           1.53229029977998     -1.60168898244569      1.46936812321941
  C           2.74990526238157     -0.98842080421299      2.13074275771332
  C           1.86216846552546     -2.27080782972296      0.14224573659955
  H           0.93310361337772     -0.71941053321105      1.18575081259308
  Br          4.12766296148209     -2.23964872929362      2.71884847621226
  C           0.70217945726401     -2.30454638150763      2.59862177878716
  C          -0.75450805407109     -1.96828685360355      2.42134872682422
  C          -1.45875062050334     -1.31295797090999      3.32386631087290
  O           2.88927347751382      0.15798235182048      2.38368265741602
  C           0.90120986691007     -3.81186793782663      2.84911154907605
  H           1.03395044265665     -1.79792977435342      3.51612949284465
  H          -1.21648441393658     -2.29743576735183      1.50285711240248
  H          -1.02512125547788     -0.97126532072302      4.24988105850452
  H          -2.50211615581569     -1.09526128540152      3.17665537755913
  Br          0.23943955500143     -2.49935869938529     -0.92415583518576
  Br          3.01646451590301     -1.00588229001383     -0.87684456425019
  Br          2.79546295326788     -3.96659483284514      0.13565520148967
  C           0.01816989544596     -4.74372018564274      2.02552709222296
  H           0.65941629555130     -3.97949295797632      3.90113653414097
  H           1.94887294771842     -4.08325903890601      2.72631332567263
  H          -1.02949501083036     -4.60056579206487      2.27712152273836
  H           0.28497886308262     -5.77287925812565      2.25155636041065
  H           0.13392663777296     -4.60110112629671      0.95628039213593
