20
Coordinates from ORCA-job NEB E -41.338040960270
  C           0.88471168459366      0.24653151192822     -0.42229286109646
  C           0.05723790353818      0.99743083278389      0.44636352505941
  C           0.67554391179179      0.44254517956368     -1.90879464905811
  H           1.95188187247941      0.25414345318756     -0.21184090556020
  C           0.56853171973581      1.40257011900203      1.79619721642287
  C           0.27568861018385     -1.49354068876194     -0.00807499519863
  C          -1.10450724235834     -1.45132309685303     -0.24055122177306
  C          -1.85678802199218     -0.49842486849270      0.50755414469261
  O          -1.22694481624463      0.95966084757477      0.24308840303935
  Br          1.30714760274970     -2.77417643127628     -1.00238986168311
  H           0.62815936549494     -1.49913341102369      1.01952778823856
  H          -1.48628577670823     -1.78288323214536     -1.19327709544164
  H          -1.75243575975814     -0.54820021260071      1.59017346049421
  H          -2.88779897272107     -0.37315837976048      0.19966987233279
  F           1.55946966031652     -0.24495291350963     -2.64300068877275
  F          -0.53420820736641      0.13643541293401     -2.37523726307630
  F           0.88126367379255      1.73905635427969     -2.22032444034927
  H           0.56344180203233      0.54006776281688      2.46984238097083
  H          -0.08594848221541      2.16053933512280      2.21801079169735
  H           1.58183947265567      1.78681242523029      1.73535639906154
