25
Coordinates from ORCA-job R E -27.331243627620
  C          -1.41405120029926     -0.19778586042111     -2.92573470438367
  C           0.22239315991921     -2.75201586782352     -2.76791677169658
  C          -0.99735911828321     -2.55949257597078     -2.27657610762979
  C          -1.74294895597216     -1.31336430119832     -2.27663847729786
  C          -0.16900025704705      2.27248646720623      0.64308592721598
  C          -0.20236649713543      1.02729915218029      0.20813852956767
  H          -1.50745546335883     -3.39403669311348     -1.81045036597789
  H          -2.65436712791088     -1.32239113947871     -1.69025024684992
  C          -2.20056393026683      1.06545467927504     -2.88023153712980
  H           0.70214184340280     -3.71445625042262     -2.72123185370382
  H          -0.52271424771986     -0.16412832644669     -3.53735564427524
  H           0.79098903563490     -1.96354953286846     -3.23049136919884
  H          -1.06498191302792      2.82448094761891      0.87283532617135
  H          -1.14912949455842      0.52098919790382      0.07288603856007
  H           0.76164463229774      2.79777980414872      0.78674525860534
  C           1.00034049633909      0.20771971245144     -0.13122033702772
  H          -3.10508745670902      0.94542741088670     -2.28853593063498
  H          -2.47604480628589      1.37777142708185     -3.88754840453991
  H          -1.59828541843738      1.86202769675088     -2.44128388031361
  C           1.00617386414411     -1.11088189228710      0.63942897979772
  H           1.90941588306725      0.77220858201828      0.08526736341078
  H           0.98069887251898     -0.01564682782947     -1.20164149108969
  H           1.01803855595443     -0.92477935364336      1.71121195785589
  H           1.88258241316734     -1.69969553974017      0.37922720482422
  H           0.11958713056629     -1.69216091627836      0.39676053574029
