25
Coordinates from ORCA-job TS E -27.312291592060
  C          -1.12672573918139      0.61504673456448     -1.42373616408715
  C           0.05058628091764     -1.73072315750925     -0.24532767792597
  C          -1.27693658228168     -1.62901413638932     -0.50002966541135
  C          -1.85353443796331     -0.49238740430563     -1.10277602046949
  C          -0.44202894212687      1.10083536501478      0.66260942129826
  C           0.35165546564348      0.11634114602769      1.16203141343501
  H          -1.95320178249970     -2.35298889015436     -0.06411449069033
  H          -2.93382429952821     -0.42309773573655     -1.10757113361536
  C          -1.77875044112464      1.85254545161551     -1.95717083900219
  H           0.42084763393851     -2.57267279265920      0.31623497535040
  H          -0.07804010041845      0.51765949161025     -1.65839350878574
  H           0.77823036117117     -1.20646696909956     -0.83455471632806
  H          -1.46482029134918      1.19649820836729      0.98004063522224
  H          -0.04044893356681     -0.57033584754116      1.89557631603152
  H           0.00696983636129      1.97893892090866      0.23136628563127
  C           1.85358483072162      0.24156066490845      1.09836662441101
  H          -1.84995613261748      1.79178812344669     -3.04479110938041
  H          -1.19935743909254      2.74096797504401     -1.71529086555294
  H          -2.78360817745197      1.96928867168318     -1.55766948389342
  C           2.60765033045016     -0.95312048611657      1.66894759422785
  H           2.13420741021416      1.12846550946365      1.67908131393923
  H           2.17611011218800      0.42943488013904      0.07060759568383
  H           2.26825988542943     -1.16622663234953      2.68036876149504
  H           3.67450766441244     -0.74155566113835      1.70474468541007
  H           2.45862348775432     -1.84078142979419      1.06145005300667
