21
Coordinates from ORCA-job NEB E -54.394033114350
  C           0.34467281783825      0.98653324742678     -0.47341062610204
  C          -0.80062511776759      1.24930610965281      0.32088273693341
  C           0.11916449371205      1.00001849389711     -1.88521993528408
  H           1.26221904528996      1.49922790536489     -0.19301730488446
  C          -0.57358964407786      1.80999622638198      1.71886984236712
  C           0.62981083617710     -0.83013290562666     -0.07543110837644
  C          -0.60099245653613     -1.40202439325614     -0.44171181920881
  C          -1.76212676840299     -0.99971467350026      0.27951087835964
  O          -1.89962649521409      0.59890022819907      0.10918484362086
  C           1.89039771148073     -1.31296788096376     -0.75443377107713
  H           0.81745835285941     -0.71817631335755      0.99086856852236
  H          -0.71665629464135     -1.78045048127045     -1.44636789977485
  H          -1.70287303093219     -1.07510326105774      1.36307729169691
  H          -2.70896713423865     -1.35562718644643     -0.10887490200910
  N          -0.11407609249738      1.06095702047579     -3.00176420459935
  F          -1.66137628282677      2.38055309119131      2.22788656534342
  F          -0.21108282347003      0.83058442484579      2.58833022031304
  F           0.41574247119216      2.71109189922489      1.74763097688269
  Cl          2.29303039281400     -2.89453622711370     -0.01298269603386
  Cl          1.72020840140189     -1.54417423033154     -2.50152435576269
  Cl          3.25928761783948     -0.21426109373618     -0.45150330092664
