21
Coordinates from ORCA-job NEB_product E -54.426433009790
  C           2.85134830581297     -2.23192437236916      0.61857273733632
  C           1.61316544148460     -1.85990100903127      1.40935598786988
  C           3.17927215552509     -1.15893912010587     -0.30257976314892
  H           3.68214370553136     -2.31390749850561      1.33736555164782
  C           1.69100974138619     -0.44469600517747      2.05946253940019
  C           2.64497048700885     -3.58967217106230     -0.09376015501492
  C           1.86263060275400     -3.41949989638465     -1.37002005719317
  C           0.62682064205744     -3.85501641949202     -1.51741078149945
  O           0.64813613388160     -2.54333742207129      1.55749204734335
  C           3.98410886093410     -4.27771808941647     -0.35995740276619
  H           2.07710743533379     -4.23357277689510      0.58782360011228
  H           2.37450358522502     -2.89546335723451     -2.16418473432141
  H           0.10528442911515     -4.37035576847028     -0.72819758618673
  H           0.08597938774270     -3.70470753866059     -2.43485492977183
  N           3.40879307546857     -0.30975140687226     -1.02829207712751
  F           0.93916957907218     -0.37692820248269      3.15514696836327
  F           2.94395419498841     -0.12615625356730      2.41221092185812
  F           1.26144686496039      0.49214239220781      1.20923654595240
  Cl          3.69353379964269     -5.83167996307763     -1.16936851057473
  Cl          5.04950136731918     -3.28408983048342     -1.38245795461082
  Cl          4.83142020475574     -4.60052529084794      1.18181705233205
