19
Coordinates from ORCA-job NEB E -41.506077317580
  C           0.39336868511930     -1.02179126604981      0.54103832763100
  C          -0.84768374526800     -0.59562562786665      0.01076190604317
  N           0.61024511701552     -0.94419391215764      1.90855657296832
  H           0.92891925377324     -1.80975029599921      0.02710425149387
  C          -1.26311603650011     -1.12562368907106     -1.36207621016695
  C           1.47475857032849      0.64737621390187     -0.04482724329721
  C           0.57462500205870      1.60809782486975     -0.51414262458361
  C          -0.44778177171964      2.02397586825607      0.31305975186059
  O          -1.45066348002028      0.39428843153569      0.48965291850022
  Cl          2.70054325450409      0.06464885177783     -1.11740974122783
  H           1.84010447623817      0.73414003296131      0.97019127990646
  H           0.46044619850957      1.72070315639053     -1.58413231470327
  H          -1.21842149572226      2.67074217834654     -0.07097740046241
  H          -0.28917597513382      2.06629767052011      1.37845730176590
  H          -0.16639277569812     -0.55289762157030      2.42124697955088
  H           1.03321574550988     -1.74925378880465      2.33765646383771
  Cl          0.01895677880814     -1.00420543354416     -2.58903815124553
  Cl         -1.66142142752292     -2.85733344686694     -1.17065311187429
  Cl         -2.69052637427995     -0.26959514662928     -1.94446895599703
