19
Coordinates from ORCA-job NEB_reactant E -41.550171525590
  C           1.79339003606254     -0.10416575322320     -0.03334279785457
  C           1.52581425571222      0.71668850977585     -1.06592585973331
  N           1.85370544865385      0.31155940232062      1.26467355799812
  H           2.02375404854544     -1.14211850630130     -0.21599069974923
  C           1.56263755134057      0.22635107130352     -2.47866718584548
  C           3.99221533736472      3.11713139592056     -2.59356926535440
  C           2.77649502072158      3.37902387833856     -2.14484464104671
  C           2.30283552424649      2.95263362392190     -0.78854241316584
  O           1.20101090355287      2.04051495197316     -0.84855753246590
  Cl          4.53352275934675      3.59374308017160     -4.14913835776301
  H           4.74030888518705      2.59451151063539     -2.01611819096574
  H           2.05320008244942      3.89383102641703     -2.75890911044325
  H           1.90422346515648      3.81894924289691     -0.25147856064928
  H           3.12578828141018      2.50958313748056     -0.21567011264045
  H           1.43667391666874      1.21312208770121      1.44434856655758
  H           1.70556745984105     -0.38230908079811      1.97769084707114
  Cl          3.26393013852721     -0.00058742737808     -3.04569722971081
  Cl          0.77115343123260     -1.36472586692773     -2.62790190376832
  Cl          0.76277345398021      1.34456371577154     -3.57905911047052
