19
Coordinates from ORCA-job NEB_product E -41.544066748420
  C           2.70053797121723      0.91725692609521     -1.14026471251544
  C           1.43936169078749      0.83270472933538     -1.99922762630567
  N           2.35753380692366      0.79236320744822      0.26155498751689
  H           3.38634745462499      0.10642882940919     -1.40113510250990
  C           1.32763598991208     -0.42867754722765     -2.87793707953670
  C           3.41765583426329      2.26378476662212     -1.35814500879023
  C           2.63068565483688      3.45122732412186     -0.91890248622542
  C           3.06179796797619      4.30076108101048     -0.00408957631862
  O           0.51899218056731      1.59349714907663     -1.92105049193754
  Cl          3.76350688613972      2.42233698029156     -3.11628119362683
  H           4.38167105786152      2.22840915779960     -0.84601918831509
  H           1.67849308097217      3.59078521080217     -1.40978604104233
  H           2.47806492643939      5.15510893601063      0.29079326801780
  H           4.01243941310287      4.17362806347151      0.48701164985902
  H           1.70108192801035      1.51593105799535      0.53548483306129
  H           1.94977870696536     -0.11473587110482      0.45697549928098
  Cl          2.76440159949247     -0.67805703949636     -3.87792473803430
  Cl          1.17094958884507     -1.78337960618443     -1.72189087790693
  Cl         -0.10983573893804     -0.36377335547667     -3.90146611467096
