18
Coordinates from ORCA-job NEB_reactant E -43.255293238260
  C           1.96915662444880      0.39275369515370     -0.00020013624038
  C           1.53384573888100      1.00083915391507     -1.11793003675778
  N           1.73279200965414      0.78475584699913      1.34635207445877
  H           2.56837834160366     -0.50286515811701     -0.10179209603042
  N           1.83943354979179      0.28290186482032     -2.40910265331914
  C           2.50859288660353      3.89018377043673      1.23234006834425
  C           2.20904489793621      3.66270541297908     -0.03646133160190
  C           0.85137950011181      3.22083987786233     -0.49103427353678
  O           0.93214104026759      2.12676225316855     -1.40628418153526
  Br          4.20426207767929      4.49507133814951      1.77781716695091
  H           1.80846130754817      3.76414720339138      2.04456658784363
  H           2.94457100073067      3.79771680694437     -0.81783802974592
  H           0.37328261357256      4.00747664692106     -1.08227511306471
  H           0.21785821786252      2.96110521419173      0.36482863750122
  O           2.57345953761287      0.48122023587650      2.15940283840230
  O           0.69778104534888      1.37447891046163      1.59920168282545
  O           1.62975149761074      0.89963214521184     -3.41362288735768
  O           2.26130811273578     -0.83902521836592     -2.31866831713656
