18
Coordinates from ORCA-job NEB_product E -43.249805038440
  C           2.32141660902570      1.20570509083787      0.31221217869864
  C           1.30239874465951      0.78322161102533     -0.70842318610532
  N           2.17373133050065      0.28499865593614      1.51129374825619
  H           3.33661973139471      1.08503883183430     -0.08621634593265
  N           1.88106997503104      0.73558067664585     -2.15898531271701
  C           2.02313786173863      2.65923831673263      0.70095609544099
  C           1.95686458194347      3.54788211114017     -0.49571509330050
  C           0.90845871811876      4.30076052724668     -0.77474055542324
  O           0.15812397756992      0.53043599857183     -0.56738539008498
  Br          3.47455033242140      3.28377109069592      1.90947731089843
  H           1.10582739770900      2.69947560104489      1.29444451387449
  H           2.84054954981842      3.55222900840447     -1.11956870039857
  H           0.88911245417882      4.93446908885292     -1.64345529333258
  H           0.03043800619956      4.31150762357688     -0.14998828205084
  O           2.87923688530809     -0.68195871366512      1.49598032249839
  O           1.35984420662459      0.58907693965305      2.33192979308375
  O           1.09755022194674      0.40880233437733     -2.99929559359503
  O           3.03636941581100      1.04696520708884     -2.29132020981017
