20
Coordinates from ORCA-job NEB E -40.475509486230
  C           0.01565083739470     -1.21761839157690     -0.53421956103225
  C          -1.40353172386216     -1.05961109187809     -0.59925650065218
  Cl          0.59779332664011     -2.19255269642495      0.79742446634817
  H           0.50923788044005     -1.50841331373780     -1.45967267112724
  N          -1.92268831954092     -0.74064903734801     -1.93886155124542
  C           0.57277423150468      0.48668910707008     -0.24741449475916
  C          -0.16617814529030      0.84835235498316      0.92411941616585
  C          -1.55286733984912      0.97076254639510      0.85085221046831
  O          -2.07396310904774     -0.64996329093768      0.38252756114843
  O           1.93274521745290      0.47933024524530     -0.29698486568104
  H           0.22738472556733      0.93891375153472     -1.17957081206704
  H           0.28260954699371      0.65177953436156      1.88601928657885
  H          -2.00392307595457      1.46229777556501     -0.00290388399070
  H          -2.09935997988903      1.10224548539412      1.77279976645870
  O          -2.94743664833283     -0.09920727168727     -1.98634535337278
  O          -1.28714574407386     -1.14080404295370     -2.89491867416875
  C           2.67080550984173      0.42488755923693      0.91169657212379
  H           3.71070699637779      0.33423010683631      0.60489927742842
  H           2.39767820545307     -0.43682911228999      1.52235623249417
  H           2.53970760817446      1.34615978221211      1.48745357888188
