20
Coordinates from ORCA-job NEB_reactant E -40.508096600440
  C           2.14987787213173      0.33685125266927     -0.44507268284398
  C           1.52901601405552      1.44266684273281     -0.87565934965937
  Cl          2.72759645987895      0.01771982058615      1.12769954504036
  H           2.31449284674805     -0.46321080798280     -1.15254069336806
  N           1.13025872540299      1.45320939633241     -2.29267245055176
  C           3.88658656256120      3.41008881408313     -0.06769541377788
  C           3.16786846111391      3.09901272278391      1.00582559518516
  C           1.67224666062888      2.97153947399245      0.96202906861202
  O           1.16861603632683      2.59656379148669     -0.31495066556872
  O           5.22297963252298      3.53622997518582     -0.17441553083285
  H           3.42102229763424      3.59601227272373     -1.02719137216835
  H           3.61400972445601      2.92268543502106      1.97044440693438
  H           1.18972352255367      3.93745803030607      1.14807954521888
  H           1.32935726742060      2.26414248262199      1.72462951361237
  O           0.70974181593281      2.49336563823340     -2.72736058947041
  O           1.25616831995406      0.42452326228530     -2.91781170708978
  C           5.99508316424163      3.33309663255202      0.98708430998259
  H           7.03173732499619      3.47129654925671      0.68659043488710
  H           5.85911309276491      2.32051493079636      1.37936694236419
  H           5.73870419867481      4.05903348433353      1.76452109349411
