20
Coordinates from ORCA-job NEB_product E -40.492248706990
  C           3.16369011094532      1.44250693815451     -0.52209051170714
  C           1.76904473949879      1.32475336587138     -1.01438427836946
  Cl          3.40679889126781      0.23488599189019      0.77308017291747
  H           3.88209801408647      1.24599473307314     -1.32350524702047
  N           1.63593152487638      1.74038893858632     -2.50971365846430
  C           3.37689919252207      2.93027675761748     -0.02876089460106
  C           2.74759036432064      3.10468805980101      1.32558210337747
  C           1.57233293757853      3.67809347638924      1.50019990754237
  O           0.77132932716177      1.03690524837816     -0.44707893746106
  O           4.70652136145489      3.32830793844033     -0.15361774301647
  H           2.85661604887267      3.57393314825811     -0.75159866407931
  H           3.30138383163543      2.70672675903750      2.16170507087248
  H           0.99770427606215      4.07242137823623      0.67811007538205
  H           1.13423594158735      3.77419145561214      2.47806386529907
  O           0.52506456771068      2.02160573964464     -2.86270433969271
  O           2.64320722918716      1.74565766782358     -3.17335038905440
  C           5.66623322278733      2.75305370973947      0.71369796979401
  H           6.62215555841871      3.14903836825897      0.37686171353307
  H           5.68074664103610      1.66355974876796      0.64198340875084
  H           5.50401621898975      3.04941057641964      1.75312037599756
