31
Coordinates from ORCA-job P E -38.518834772610
  C          -2.08308703620187      0.33539866658032     -2.10912925983717
  C          -0.22277273394977     -1.56522143501325     -1.42125309365997
  C          -1.65976304577573     -1.97419931270598     -1.48942855354130
  C          -2.56424367254241     -1.05753375099793     -1.79282691076690
  C          -1.05255624866206      0.83407321577399     -1.06811337368955
  C          -0.14183056933939     -0.30043439857818     -0.53736431435592
  H          -1.93229924991023     -2.99291273331170     -1.26283834258635
  H          -3.62298973674670     -1.25727472892748     -1.84459880459016
  C          -3.18079836049545      1.26758243888828     -2.17890544803188
  H           0.39738349974401     -2.34094375470452     -0.97496968495983
  H          -1.60577773963292      0.31276734107724     -3.10031631676044
  H           0.14297181591168     -1.37612726181149     -2.42880372573058
  H          -1.59390727017569      1.27475282589236     -0.22776448569643
  H          -0.57662441730674     -0.62873795153845      0.41398652648721
  H          -0.45822084180367      1.62903438293467     -1.51852245262568
  N           1.22940080628963      0.07125150954982     -0.20730586376427
  N          -4.05099577432281      2.00874726158464     -2.21283222366065
  C           2.00926006092524      0.88933001899160     -1.14190931030387
  C           3.49391847380261      0.81672012522619     -0.75645838682407
  C           1.89638349060120      0.44511529082970     -2.59898529723994
  C           1.31520068509961      0.61896817627096      1.13541997291420
  H           1.69502859147417      1.95075971927494     -1.07932156276653
  H           3.76941814616412     -0.21730080915177     -0.56708997062730
  H           3.71887506322149      1.41032945997293      0.12425998679862
  H           4.10363697208091      1.19597278358535     -1.57250889508056
  H           2.22966832743239     -0.58375906728245     -2.70287904296669
  H           2.54078928549003      1.07669264472665     -3.20759342892281
  H           0.88797199444814      0.54251384899590     -2.98686222337101
  H           0.72755172425400      0.00834548545089      1.81801283395815
  H           0.95326459523862      1.65708642711544      1.19613814088446
  H           2.34545316468759      0.59192358130130      1.48000351131720
