31
Coordinates from ORCA-job R E -38.451907391120
  C          -1.70025063615740     -0.54585106815226     -3.26925731397223
  C          -0.64436355382084     -2.50942246095434     -1.24767665385700
  C          -1.75726064469542     -1.78961825516609     -1.12729100509454
  C          -2.18673239222335     -0.74760732599161     -2.03301814911907
  C          -1.20085466613506      1.43541723702790     -0.08401800459099
  C          -0.24872132430251      0.64848016808249      0.41883208076624
  H          -2.40737789376574     -1.95524195354037     -0.27890984909491
  H          -2.97235772870518     -0.09811625349230     -1.67548706155427
  C          -2.15035605518515      0.50205552263816     -4.08518363806278
  H          -0.38354848790091     -3.26749553891578     -0.52917720577627
  H          -0.93445392216174     -1.17491373731919     -3.70212951783925
  H           0.05344400938244     -2.36310885298909     -2.05481694497397
  H          -2.17996275593602      1.42943102844368      0.35734478158086
  H          -0.50692606943268     -0.01666512322996      1.23381484655997
  H          -1.05311091169682      2.11744891698157     -0.90047113481493
  N           1.06668372626994      0.56072795582892      0.06111379765795
  N          -2.49754658332414      1.35499630443680     -4.77124675064690
  C           1.63737146295889      1.43648277888085     -0.94201934190177
  C           3.05075268833147      1.87936332266571     -0.55972946940595
  C           1.62502971713025      0.79330390776268     -2.33259864448256
  C           1.87217107822779     -0.52360297430856      0.55954758870142
  H           1.00476217175836      2.32920007341450     -0.96687831096792
  H           3.75563101266465      1.05370412701515     -0.62310890386195
  H           3.06124173191536      2.27755690759517      0.45186294009563
  H           3.37936119571896      2.66106035977931     -1.23920764223168
  H           2.30149983387251     -0.05885403032818     -2.36726567703169
  H           1.93820654211191      1.51025153857343     -3.08643418677724
  H           0.62249288728523      0.44940095102355     -2.57159798623690
  H           1.24396840009629     -1.23240073995505      1.09547742563598
  H           2.64683724688804     -0.16638611507115      1.24675959558412
  H           2.36003992083088     -1.05907667073594     -0.25927966428740
