14
Coordinates from ORCA-job NEB_reactant E -27.045223547480
  C           2.04882007512514     -0.00718136951536      0.13285554754481
  C           1.30842826276210     -1.05230558735326      0.50137251011987
  F           2.33352518695184      0.22654952617911     -1.16234254822126
  H           2.47166711878441      0.71670980931442      0.80602301506633
  Cl          1.00494017099736     -1.24919771625568      2.19751316392977
  C          -0.50673273022904     -5.11203279192357     -1.11826338604872
  C          -0.45891143746308     -3.79493792913220     -1.07705006099558
  C          -0.00273655592645     -3.01044313203769      0.11361411492239
  O           0.80326406207329     -1.93728980372825     -0.35862100924593
  H          -0.86297491211002     -5.63731479274703     -1.98673146243678
  H          -0.20254296316333     -5.71926027878920     -0.28151544719681
  H          -0.75760039434408     -3.19012393929895     -1.92056977356560
  H           0.56829396796415     -3.64123527361598      0.80529394612051
  H          -0.87503985142231     -2.60613672109638      0.64862139000701
