20
Coordinates from ORCA-job NEB E -40.774915856500
  C           0.39050888616077     -0.57565283068869      0.73990097750855
  C          -0.87862090370729     -0.57470289943790      0.13239273244172
  C           0.52897603179433      0.12469787920850      2.07294089595709
  H           0.90254661905279     -1.53370789161164      0.72201342270299
  C          -1.28254721340274     -1.75766010326821     -0.72964855165930
  C           1.40060417485243      0.57851149162310     -0.42788571520521
  C           0.51877374111340      1.20049337827749     -1.31731308858910
  C          -0.63915344032853      1.77476370873457     -0.72377884350864
  O          -1.49717143590047      0.53605187534709     -0.10155675711438
  Br          2.82194539437930     -0.46530858865698     -1.18197444461771
  H           1.79612365716842      1.18048699291671      0.38019051277063
  H           0.42818712879454      0.80707234589719     -2.32022305071408
  H          -1.36256235407931      2.21693539233277     -1.39833701300517
  H          -0.47279307356534      2.38352429364903      0.16159839395561
  H           0.02523956570774      1.08744289208932      2.07579198425275
  H           1.57315260358571      0.25383199428376      2.34747596505923
  H           0.06132626246646     -0.50214726361358      2.83161901098217
  Cl         -0.24420348019683     -1.87843255614896     -2.19268810579695
  Cl         -1.10885419088844     -3.26738398957394      0.18525012769744
  Cl         -2.96147797300694     -1.58881612135965     -1.25576845311765
