20
Coordinates from ORCA-job NEB_reactant E -40.812086859020
  C           1.87749591580666     -0.00687476114949     -0.10146530518668
  C           1.50315932710695      0.20601581348479     -1.36156758554605
  C           1.89568387714182      1.03582310723010      0.95950435908821
  H           2.17868368332793     -1.00138778843387      0.19123154035864
  C           1.50708850342704     -0.92118586161343     -2.37449068963504
  C           3.78674030204400      1.69319720352823     -3.92597322070958
  C           2.55321200800328      2.06743213898526     -3.63857806039566
  C           2.09264029412230      2.33354262950175     -2.23690647516703
  O           1.07396144594474      1.42363126498550     -1.81778173000364
  Br          4.36448493041759      1.34677152397758     -5.68748832603766
  H           4.56680190902779      1.56606520055947     -3.19137942647864
  H           1.80442340347666      2.16817487396367     -4.41021039270717
  H           1.61483178108136      3.31676041409650     -2.18895007208956
  H           2.93877482518916      2.30144673359914     -1.54042948544533
  H           1.45408968369856      1.96260917093058      0.60469963194823
  H           2.91955173655418      1.22134015706576      1.28395044822779
  H           1.33724423080563      0.68282732099426      1.82460993287487
  Cl          3.19699821107336     -1.31394801581198     -2.83317919435269
  Cl          0.78795268340926     -2.39816493536402     -1.69138443981139
  Cl          0.61338124834172     -0.49547619052979     -3.83481150893161
