20
Coordinates from ORCA-job NEB_product E -40.822113532550
  C           2.53355636478192      0.26575022469160     -1.52307330413291
  C           1.27570353189975     -0.19077823401343     -2.23014265130528
  C           2.14877595522058      0.80788199161564     -0.14025073815466
  H           3.21624731874081     -0.58005513595600     -1.40860714192485
  C           1.13635022549274     -1.71985630550867     -2.40153424825566
  C           3.24541540964777      1.37039156706533     -2.31880670570621
  C           2.48183976576441      2.63897943814109     -2.46216716917649
  C           2.97323871231098      3.81508049417617     -2.11564573330053
  O           0.39208998344551      0.52916089475647     -2.58780341219193
  Br          3.65576834018912      0.68642228555061     -4.14189818446747
  H           4.22484351289224      1.55634988987366     -1.87123202639399
  H           1.49638574553841      2.54818276605270     -2.89524416590149
  H           2.40612498147431      4.72059286900815     -2.24002318169666
  H           3.96041955625007      3.92166277726500     -1.69475307444131
  H           1.40890592636792      1.59831446437633     -0.23840273632617
  H           3.02981588173418      1.21138428562518      0.35292840220967
  H           1.73726992100426      0.01298184625520      0.47519185439424
  Cl          2.57774984097892     -2.46817458448884     -3.10656388159854
  Cl          0.89454233345615     -2.35827400520904     -0.75179761043395
  Cl         -0.27534330719006     -2.10699752927716     -3.38967429119580
