19
Coordinates from ORCA-job NEB_reactant E -38.057205124560
  C           1.12290015080111     -0.46128765183571     -0.36511242222079
  C           1.75206467547431     -1.52588448292458     -0.85658077600871
  N           1.12157588665775      0.78913463277862     -0.96563647114869
  H           0.61912781181187     -0.54306364663257      0.58424372691458
  F           1.80563527689580     -2.67337036460146     -0.11639099703217
  C           2.74511282727171     -4.38710644280530     -2.40092490054356
  C           3.77524170209248     -3.59459818880070     -2.16341991134889
  C           3.68781143900319     -2.10179021848183     -2.07058229706080
  O           2.35712190824707     -1.59788452134323     -2.06599131614420
  C           2.84103580176484     -5.87734895883145     -2.47872409691052
  H           1.74844504435093     -4.00217808770254     -2.55690592569813
  H           4.76708689787683     -3.99876621825400     -2.01859947230599
  H           4.16293368328226     -1.65796160511606     -2.95280885362863
  H           4.22722213090075     -1.75737462315772     -1.17842825282114
  H           0.25631182895265      1.29896398624240     -0.86776370654070
  H           1.45575802748994      0.77046007559299     -1.91908774226950
  F           2.31732363664951     -6.33255893590980     -3.64988129372495
  F           4.12182315664079     -6.31781725744510     -2.44495926108604
  H           2.29316811383620     -6.38026749077197     -1.66294603042120
