19
Coordinates from ORCA-job P E -28.213957735120
  C          -1.29385685228895      0.48625731386587     -2.70908746951506
  C          -0.45707368849382     -1.44649722340381     -0.59666426272610
  C          -1.10536227830154     -1.85111863536265     -1.88356653141712
  C          -1.46050845067268     -0.99759607223896     -2.83496923761559
  C          -0.26635164940048      0.83298350924569     -1.61883972456545
  C          -0.56275521966121      0.05644919775590     -0.33998488504133
  H          -1.24007024177574     -2.91453957927643     -2.02920366109751
  H          -1.91221278416021     -1.35165187851481     -3.75189116857737
  C          -2.61469989433213      1.18282923408276     -2.35931572975902
  H          -0.90278764044633     -2.00493195351098      0.23052776466716
  H          -0.96255475706783      0.91461469654024     -3.65998451533384
  H           0.59677728959725     -1.74102135695736     -0.64399307183232
  H          -0.29004097554091      1.90717914967653     -1.42960383041740
  H          -1.56414773443100      0.30591628749755      0.01734289444075
  H           0.72999816319938      0.57037992882453     -1.98001771270387
  H           0.14248297772930      0.34622131321341      0.44058635263752
  O          -2.82150743966455      2.33814921422070     -2.59156186603236
  O          -3.52132794741243      0.41969109643329     -1.73493603691793
  H          -3.19616087687611     -0.49283424209146     -1.63951730819315
