19
Coordinates from ORCA-job R E -28.108243787150
  C          -1.46961149893700     -0.02648694612727     -2.86884726507361
  C          -0.15906656122428     -2.36011425735757     -1.48616200052737
  C          -1.41397241672679     -2.31328315462207     -1.92075995336587
  C          -2.08375375233084     -1.12861552095510     -2.42143718534581
  C          -0.70064176819025      1.34035911613709     -0.05517249619498
  C           0.35394179720538      0.67769213855971      0.37279225604655
  H          -2.02366620559757     -3.20751059356439     -1.88770863432192
  H          -3.16783996874914     -1.18951556730266     -2.40760551840710
  C          -2.13962385300744      1.21254364416264     -3.31644087557077
  H           0.27386250337814     -3.27570087012079     -1.12223482841188
  H          -0.39273686530620      0.04403240991202     -2.86409757906513
  H           0.46474255187548     -1.48406496327589     -1.45648631630980
  H          -1.69180286808674      1.12576396879054      0.31152762966481
  H           0.27849921377307     -0.10945663783685      1.10583927244143
  H          -0.63045260341893      2.12443382728503     -0.79058369060712
  H           1.34742273759982      0.89317478669978      0.01230475768955
  O          -1.57595144654962      2.27385287319723     -3.34305993906873
  O          -3.42857961703352      1.11607906710705     -3.69703203299777
  H          -3.75177937867357      0.20638667931151     -3.67177560057447
