27
Coordinates from ORCA-job NEB E -46.184265009330
  C          -0.06255126213934     -0.24717036249753      0.70730425391736
  C          -1.09390823834368     -0.49502309193870     -0.22384201268100
  C          -0.40071514599377      0.19096972742809      2.08751947075290
  H           0.73572255467835     -0.98868319844285      0.73181318663506
  C          -0.89665624434082     -1.59575178313159     -1.24012642041758
  C           0.81573932456137      1.29860007694337     -0.29533169877586
  C          -0.26733586471546      2.18274919548311     -0.40048603733975
  C          -1.38321578542666      1.82591947609792     -1.15729068118568
  O          -2.02664878729190      0.35939293940765     -0.37807593430799
  O           1.87833949749431      1.68775304617836      0.44262749403923
  H           1.05843817272820      0.67787902573838     -1.15910984843816
  H          -0.34823581632105      2.95197284817564      0.35184738005493
  H          -1.23187413807004      1.34729573411780     -2.11605815064009
  H          -2.25175857429009      2.46484349205769     -1.10954427992370
  Br         -0.99407432648392     -1.46497059530893      3.07315622645660
  Br          1.12859695392017      0.84725474931312      3.10867364954341
  Br         -1.83538457991845      1.45879394383594      2.29320912144393
  C          -1.11094717376805     -2.96855561183673     -0.60120037105878
  H           0.11302125650677     -1.54110645217361     -1.65950022647200
  H          -1.61902917643552     -1.45037284383655     -2.04473801144991
  H          -0.39923184514521     -3.14254458788414      0.20278095906133
  H          -0.98758204934478     -3.75119712599470     -1.34526034678199
  H          -2.11416536069865     -3.03884806267660     -0.18823736503574
  C           3.08228669949004      0.97691093691350      0.25566366673681
  H           3.81277449519761      1.44889746775474      0.90871769500867
  H           3.41876555083828      1.04001834541364     -0.78359652116535
  H           2.97962986331229     -0.07502728913704      0.53908480202333
