27
Coordinates from ORCA-job NEB_product E -46.222759400110
  C           2.63292433532076      1.10148571434879     -0.74105919891197
  C           1.49783381186813      0.46694194922956     -1.55877350381322
  C           2.14116781614438      1.48680972136218      0.63772370099555
  H           3.44205194053017      0.37369139027908     -0.59838007407336
  C           1.79642421409000     -0.91956079126425     -2.06130852280927
  C           3.26392829422320      2.25194854668666     -1.57292194161202
  C           2.49571617373783      3.54220018591056     -1.52379133421564
  C           1.65602606858746      3.92775896052779     -2.46570552766689
  O           0.47812890896023      1.06267341624259     -1.77570692502699
  O           4.58324743347590      2.38218279712464     -1.08504280443648
  H           3.29753930168057      1.89897058350478     -2.62174496727454
  H           2.69852726745862      4.16475553084321     -0.66239158921365
  H           1.45372317941204      3.31998959726113     -3.33204145005891
  H           1.11314588491258      4.85313055262373     -2.38974272094538
  Br          1.70106351560504     -0.18014811324053      1.58657549120356
  Br          3.51431567370249      2.38231804611719      1.68071365796017
  Br          0.54492905216702      2.57870513126670      0.68776549927968
  C           0.68207956741486     -1.46113897371980     -2.94546557582177
  H           1.93974754153761     -1.56666582760021     -1.19023406344641
  H           2.74740257182805     -0.89118121981982     -2.60101330021429
  H          -0.25368737703125     -1.48638202880306     -2.39343976744308
  H           0.92072089142461     -2.46670189008401     -3.28018508530896
  H           0.54411152180409     -0.82317144659331     -3.81486652319443
  C           5.40074239661532      3.22296161420277     -1.86102969719655
  H           6.37675855827343      3.21725170708271     -1.38157999811826
  H           5.01296149478235      4.24585006242128     -1.89469963854897
  H           5.48816996147449      2.84262478408966     -2.88615414008792
