15
Coordinates from ORCA-job NEB_product E -26.601708571750
  C           2.10455625994288      0.94461447508304     -1.34883021300571
  C           2.31812208606415     -0.15242073896843     -2.35781608056093
  I           3.79524919928283      0.81301315414739      0.01194828593756
  H           1.23276308752650      0.71487457982569     -0.73096788441332
  H           2.44026564172146     -1.15024932211694     -1.89707680768111
  C           1.95165667793504      2.32526971289323     -1.99245998413949
  C           1.58089232949458      3.38315983884707     -0.98641087228066
  C           0.45059055079106      4.06076472996631     -1.02500944587930
  O           2.36035808246612      0.01582353990625     -3.53987336419187
  C           3.17660978072044      2.71743415592441     -2.66210507560200
  H           1.16657425998157      2.24145896714872     -2.75697216542299
  H           2.31606583006828      3.56199937310480     -0.21300595032087
  H          -0.28771111263328      3.90284184325235     -1.79483980546208
  H           0.21785398368188      4.80805119540507     -0.28675328416641
  N           4.15435334295647      3.04606449558107     -3.15092735281080
