24
Coordinates from ORCA-job NEB E -57.124026978850
  C           0.33151637503618     -0.75996679377156      0.80820197788947
  C          -0.74536491808395     -1.00706702645477     -0.06750943705181
  C          -0.01307830142901     -0.35067465820970      2.21282314550163
  H           1.12569967891644     -1.49762447500002      0.79675003413927
  O          -0.53478731161796     -1.97533505463870     -0.98125644370312
  C           1.04984555201130      0.86599898292741     -0.15424793819345
  C          -0.06179348367432      1.70519665632818     -0.20846086410330
  C          -1.19613320413450      1.25659149361767     -0.92803243306172
  O          -1.70403455180107     -0.17121197929673     -0.19362039496755
  C           2.31785228363252      1.34965395559490      0.49423180245764
  H           1.28760886352571      0.28708158094824     -1.04327384290737
  H          -0.20193232845926      2.44091792640320      0.56677123389386
  H          -1.02341057127453      0.86861871396811     -1.92658547748356
  H          -2.09265803913579      1.85625624704907     -0.85028121194824
  F           1.07345484231027     -0.23295791834780      2.98498091165523
  F          -0.70331741506710      0.78417676838925      2.33504093869752
  F          -0.76928555145671     -1.30355964743606      2.80249539288400
  C          -1.51349316612654     -2.16481060137507     -1.99368310941781
  H          -1.59458145760518     -3.23842769320271     -2.15437229974411
  H          -1.18867381403040     -1.68186182499492     -2.91806250568918
  H          -2.47570512056811     -1.75547235198966     -1.68240995522115
  Cl          3.41994089097928      0.01321182224227      0.89122992538593
  Cl          3.14782875355604      2.37353043987406     -0.72803288878688
  Cl          2.06450199449673      2.33773543737536      1.93730343977468
