24
Coordinates from ORCA-job NEB_product E -57.179290192470
  C           3.27196355843208      0.75076796221165     -0.86379102048564
  C           1.99804484867168      0.48196696143854     -1.68344373309491
  C           2.92568454804833      0.65076454703556      0.62186978131972
  H           3.99249917554227     -0.04965192780406     -1.06195059685202
  O           2.32279648122250     -0.07225089613827     -2.84530342925909
  C           3.84193247364160      2.08535080601837     -1.40327104128191
  C           2.81620023975579      3.19033367530751     -1.38701343444497
  C           2.40057922350311      3.79081688091838     -2.48522447019945
  O           0.88855647855055      0.76440086763947     -1.34104402180132
  C           5.14197920746488      2.55775676570130     -0.73856395059589
  H           4.10788024877239      1.87550598797370     -2.44749603079889
  H           2.42798296788381      3.47091853011362     -0.42095788462774
  H           2.77666313110535      3.52719814827114     -3.46070385803091
  H           1.66622292080150      4.57558613860228     -2.44999805870096
  F           4.02033483971989      0.52891565921561      1.38582736837985
  F           2.22099282413168      1.66686476911826      1.11071156297615
  F           2.21089759344936     -0.46418399737063      0.84516341018231
  C           1.24120883070078     -0.33727231168888     -3.73618139612084
  H           1.69023343258570     -0.70960589596509     -4.65270147437411
  H           0.67564290514212      0.57700178158311     -3.92264616070568
  H           0.57383295025086     -1.08400212222051     -3.30366189187516
  Cl          6.33040934894600      1.23679399171516     -0.64178733053789
  Cl          5.83639459465639      3.83889109944589     -1.76914281262918
  Cl          4.90326717702138      3.24323257887788      0.87841047355853
