22
Coordinates from ORCA-job NEB E -35.544320854260
  C           0.38290773666783      0.13161530478135      0.94763442145231
  C          -0.82900718812411     -0.58902114008562      0.86559492135417
  C           0.31026850374421      1.61598698805190      1.19725827627461
  H           1.20064861014672     -0.36345398999241      1.46456458694361
  C          -0.86176089871980     -2.06907279071456      1.11077749292489
  C           0.83223403887972     -0.04137374612793     -0.89564808393176
  C          -0.22788858581346      0.58435934071396     -1.57150446963009
  C          -1.51279547481643      0.00236637260442     -1.40597026160618
  O          -1.80575271573075     -0.05115496121952      0.19050921248585
  N           2.14351581789897      0.55920141330882     -1.00005199002045
  H           0.92869683000237     -1.12345847011996     -0.94083491396394
  H          -0.13234318046676      1.63748592626956     -1.78715529639931
  H          -1.59356773817420     -1.05791955977078     -1.63818548171595
  H          -2.35195416499703      0.56975557534070     -1.78927746983720
  H          -0.61764713339117      2.01665843632380      0.79708002532315
  H           1.14704633766209      2.15849043096735      0.76372410606659
  H           0.32474552420607      1.78580982279198      2.27290596927747
  H          -0.77865278397308     -2.60560545273099      0.16092611005982
  H          -1.81523318791196     -2.34630398654990      1.55484613088428
  H          -0.05344692319574     -2.37986956847865      1.76476544405212
  O           2.21988469723598      1.75860329072314     -1.13922292856294
  O           3.09010187887052     -0.19309923608665     -0.92273580143102
