22
Coordinates from ORCA-job NEB_reactant E -35.567895364810
  C           1.81789882523048     -0.03033716943932     -0.26355082099042
  C           1.45688542918135     -1.18404610365257     -0.81949278710693
  C           2.08779298624776      1.31984335731558     -0.86598592045663
  H           1.92559604471430     -0.06101748063246      0.81041379581367
  C           1.22162406616885     -2.41985425657962      0.00426986377966
  C           3.55624485088088      0.29227563777091     -4.33805559655430
  C           3.00362027047665     -0.43849297407733     -3.37461946939255
  C           1.53477002386763     -0.63491700335816     -3.18601528722441
  O           1.21278081438487     -1.50526893387588     -2.13739923012963
  N           4.97682760612784      0.42041824130792     -4.44726417653978
  H           3.01451706543115      0.83540110849219     -5.09701665656175
  H           3.65207271571107     -0.95003298786488     -2.67181261601541
  H           1.12115443546194     -1.12009759468137     -4.07920551531499
  H           1.03199384863693      0.33434719608949     -3.07836175054797
  H           1.17650050719782      1.77472637706106     -1.25613826728402
  H           2.82168480821077      1.27722387096679     -1.66991649083622
  H           2.47831069728876      1.98066836658884     -0.09647878867315
  H           1.95893579692089     -3.17908254419590     -0.25133076327117
  H           0.23798658718312     -2.82503457335567     -0.22364051434775
  H           1.28576994750170     -2.20270001066800      1.06461316657068
  O           5.67185152600863     -0.12692813908802     -3.61812068479758
  O           5.39088114716662      1.07960561587643     -5.37749149011934
