18
Coordinates from ORCA-job NEB E -33.766151491960
  C           0.58270404752991      0.23974553127848      0.79499648399591
  C          -0.80258249444787     -0.18090949118109      0.72166917994497
  O           0.70890090339690      1.63146836150316      0.84776198979997
  H           1.11193129797401     -0.24628501191129      1.62346979821525
  C          -1.31633977434767     -1.35253696512010      1.48386479192740
  C           1.21282107741738     -0.27944800260425     -0.59915825162550
  C           0.47389940865488      0.33340459906388     -1.65022128108740
  C          -0.91962311678766      0.79332590514325     -1.40246117753105
  O          -1.57151469193994      0.23823307689096     -0.29690900831238
  Br          3.23124410830248      0.26912640900052     -0.64133651243478
  H           1.30747609040407     -1.35776215512057     -0.53901480603138
  H           0.99209216229188      0.89529962737892     -2.41074389300056
  H          -1.56958497374823      0.54351378158563     -2.24811890478795
  H          -0.90636411134418      1.88990830889223     -1.31443022873557
  H           1.63974336712785      1.86549576196347      0.71812957457891
  F          -0.67887574167701     -2.51679273664148      1.06349784220995
  H          -2.38279909325200     -1.49211622060276      1.29331995499325
  H          -1.11312846555477     -1.27367077951895      2.55568444788094
