18
Coordinates from ORCA-job NEB_reactant E -33.810931400170
  C           1.66305473729969     -0.17539329512999     -0.25846714502914
  C           1.39262045738072     -1.38288168911872     -0.75071989134255
  O           2.07534590787455      0.91769662860274     -0.98986048184070
  H           1.55270911089150     -0.03021532051219      0.80555695485427
  C           0.93044576022393     -2.50290599093542      0.14954050302361
  C           4.40441676579015     -1.57557393690387     -3.79578935062750
  C           3.58667992671473     -1.12598642142380     -2.86340595206138
  C           2.09674856086958     -1.08346052869352     -3.02942229937310
  O           1.43017488123709     -1.84800696990151     -2.04115254854228
  Br          6.28248617544402     -1.60549875866494     -3.57599740668371
  H           4.08614561752821     -1.94340172989713     -4.75816799929358
  H           3.96354921819688     -0.77163792947624     -1.91513329971981
  H           1.79980197691420     -1.53678820401244     -3.97858251779713
  H           1.76141272600117     -0.04112753156402     -3.00099420457328
  H           2.28342965387834      1.63887846145095     -0.38935843778535
  F           0.67337930587976     -2.07126787109130      1.42130462743973
  H           1.69825689233458     -3.28260782815569      0.22117999912088
  H           0.00664232554089     -2.93972108457290     -0.24483054976899
