22
Coordinates from ORCA-job NEB E -32.091163521460
  C          -0.33895281829315      1.24796900162404      0.52274390399539
  C          -1.60293624962990      0.70509180884396      0.77037615194855
  Br         -0.28909485230318      2.80536351929525     -0.58547927724714
  H           0.35256663177355      1.34141351076929      1.34856263785304
  N          -1.75350666565843     -0.08602063676305      1.89260230693253
  C           0.41128034626367     -0.23599396787721     -0.74427011565555
  C          -0.70057101054070     -1.00792007010754     -1.05103666594565
  C          -1.85477340568232     -0.34405849179247     -1.51851574646549
  O          -2.45477106250243      0.53688533394152     -0.17409476223908
  C           1.57728524027769     -0.84860936645164     -0.01277790836390
  H           0.69205651111588      0.51727121161277     -1.47043119260700
  H          -0.84503871050786     -1.92955121674506     -0.49948247216713
  H          -2.73527886076680     -0.93132813773335     -1.73972547440515
  H          -1.70376388583708      0.48146185583404     -2.20522668838828
  H          -2.65464577763119     -0.52500864880491      1.99284632678856
  H          -1.29746866438908      0.18612769148280      2.74623353268674
  C           2.78750200651700      0.07515559379249      0.05690536229060
  H           1.86174777600438     -1.76530055624749     -0.53807408213728
  H           1.26580849482463     -1.14191320001559      0.99319660464721
  H           3.12754762697094      0.32904758149077     -0.94452775802786
  H           3.60605527897606     -0.40992891014723      0.58374385324244
  H           2.54895205101832      0.99984609399860      0.57643146326445
