22
Coordinates from ORCA-job NEB_reactant E -32.126758689140
  C           2.43593167367685     -0.72961538035444      0.03231214923807
  C           1.52091095599280     -1.70513485122925     -0.03811529417269
  Br          3.32423037553315      0.12759389991114     -1.40062979073877
  H           2.71189113513499     -0.32129779085430      0.98817070884777
  N           0.94373818409352     -2.19071110504282      1.13000250924345
  C           4.34508244848946     -3.07248335535594     -2.26492956774686
  C           3.15993042813991     -3.34275411225132     -1.74570049994788
  C           1.87725614671431     -2.71633631172223     -2.19971773237477
  O           1.02543230267559     -2.37313392059564     -1.10897542232022
  C           5.63207708988524     -3.67459392482818     -1.80536601514444
  H           4.43094972236564     -2.34943488880858     -3.06569414695523
  H           3.05459691951887     -4.05191691679710     -0.93445613135630
  H           1.27878135594617     -3.44015379971706     -2.76543368541678
  H           2.06573162214758     -1.85061100600879     -2.84254081529095
  H           0.11176317530039     -2.73381054139580      0.95292815286872
  H           0.84877669180534     -1.53343793165222      1.88750358301010
  C           6.56904381544473     -2.58947056440834     -1.27401276879180
  H           6.11276808072523     -4.17991696307546     -2.64767066341024
  H           5.44196818428232     -4.41490854006572     -1.02601817421458
  H           6.76690568328721     -1.84745902681259     -2.04377428261526
  H           7.51429513921717     -3.02336820175312     -0.95683432996405
  H           6.11573886962355     -2.08514476718226     -0.42404778274728
