22
Coordinates from ORCA-job NEB_product E -32.159294400240
  C           3.11291868914944     -1.65049915045526     -0.55644261436779
  C           2.32005912504410     -2.48733252920787      0.44966471804268
  Br          1.96387084278413     -0.18502736074711     -1.20370666455655
  H           3.91804439335236     -1.14189880571313     -0.01844175920432
  N           1.76606452203146     -1.76272358906006      1.44405689243763
  C           3.67719414686552     -2.40868756911274     -1.76197183198193
  C           2.57342154853314     -3.07413565866250     -2.53408578088910
  C           2.19307459229033     -2.69570588699080     -3.73912380824339
  O           2.24623669959168     -3.69242220151862      0.40456984063151
  C           4.72906171662213     -3.44756956651895     -1.33984864352853
  H           4.16466146668825     -1.66824721230790     -2.41009220220088
  H           2.08827792179599     -3.89409778429548     -2.02465725427944
  H           1.39195955216654     -3.18781795248411     -4.26321822151993
  H           2.66410876317674     -1.87376282412494     -4.25521892516327
  H           1.19903311840432     -2.24532084552342      2.12161546594380
  H           1.73282482444481     -0.75744924228774      1.42562696956494
  C           5.98275727263612     -2.83233403901726     -0.72832851723100
  H           5.00893402331578     -4.00189809958805     -2.23867038892237
  H           4.27891440760287     -4.15120578745866     -0.63996813279413
  H           6.39170816201498     -2.06040796114777     -1.37830673708598
  H           6.74116255569085     -3.59977983106480     -0.59461474495070
  H           5.78031165579846     -2.39477610271283      0.24696234029874
