17
Coordinates from ORCA-job NEB E -30.350995243440
  C          -0.10101096479254     -1.04863698278242      0.95426322649584
  C          -1.43458150511158     -0.63746119049605      1.11830852954599
  F           0.83888247776547     -0.54204673851013      1.78325374054966
  H           0.09644917378619     -2.10750125035879      0.79140485063973
  H          -2.20021271999067     -1.28335921339361      0.67737727773404
  C           0.33635571468624     -0.16402338928619     -0.64844974079236
  C           0.06788253327117      1.17192281776147     -0.30570094839278
  C          -1.27269843622248      1.52616467840809     -0.00392558671608
  O          -1.70041287701907      0.61718858302046      1.28547509655487
  C           1.75800467063382     -0.55680685253870     -0.99380544989917
  H          -0.36793610115078     -0.66070642886819     -1.31157944538732
  H           0.86681011325891      1.74009762643362      0.14765901455288
  H          -2.02949987235294      1.21257749304305     -0.71903981468581
  H          -1.43698110402938      2.53087018712113      0.36442086328545
  F           2.68063083591427      0.18504948509962     -0.31304057678474
  H           1.93673138103933     -0.37465713023864     -2.06137345220224
  H           1.96158668031404     -1.60867169441471     -0.76524758449795
