17
Coordinates from ORCA-job NEB_product E -30.388507924680
  C           3.10866518121346     -0.58120256778005     -2.00063560011033
  C           1.66574805617535     -0.43787551848514     -1.55442429440458
  F           3.95526618605064     -0.25687175179549     -0.97824764002146
  H           3.29942252473583     -1.63738716031103     -2.24729967086695
  H           0.96000775717869     -0.77433786530277     -2.34176888623436
  C           3.36047821648595      0.31189969170540     -3.23697074635877
  C           3.27303223799539      1.76092058284267     -2.84304283405451
  C           2.36884703634753      2.59625658272195     -3.31437345552091
  O           1.29598312771536     -0.01743984098433     -0.50282284050210
  C           4.71464721796931      0.00709203685562     -3.89152315274313
  H           2.58930148986324      0.07372885619263     -3.97746232893014
  H           4.01728755896651      2.07820183369091     -2.12712224627339
  H           1.62015880685383      2.28805177776164     -4.02698096936018
  H           2.33823791620660      3.62642041311981     -3.00660232513699
  F           5.75944270107718      0.30883712723489     -3.06651966694124
  H           4.83772670680287      0.61723966706769     -4.79313561351300
  H           4.80334727836226     -1.05653386453439     -4.14186772902795
