19
Coordinates from ORCA-job NEB_product E -41.088482356540
  C           1.59440776303569     -1.33629260386058     -1.69674428410178
  C           1.44271049905509     -1.56379174703721     -0.22127349611127
  C           1.23485318505723      0.10801651370663     -2.04307269998127
  H           2.64229323816940     -1.48955590190690     -1.97954773601319
  Br          2.59206375839774     -3.03503223314560      0.38115350794968
  C           0.80924217451016     -2.46639857632561     -2.45888631309099
  C          -0.63826805238802     -2.13350899760797     -2.69886825228733
  C          -1.63124323776419     -2.66915821079011     -2.01358062434145
  O           0.74130432158830     -1.03667142536169      0.56405899184329
  N           1.55385101046502     -2.78626829724475     -3.66007110952955
  H           0.86038368841788     -3.35696594534952     -1.81928510439969
  H          -0.83060306829755     -1.46375914562552     -3.52573827782493
  H          -1.45671987656822     -3.34684043382023     -1.19366292311356
  H          -2.65945201780301     -2.44149250731095     -2.23402311934268
  Cl          1.41260213760762      0.41081145175867     -3.78218461648217
  Cl         -0.40101095693495      0.58279063603209     -1.55433036053502
  Cl          2.39524118621628      1.18149396805083     -1.19061962289269
  H           1.45813367388026     -2.05716638639013     -4.35803348493647
  H           1.22831057335527     -3.65791015777143     -4.05839047480889
