23
Coordinates from ORCA-job NEB E -43.677141969150
  C          -0.09258008857619     -0.53268044573552     -0.74285982268768
  C          -1.48182413452608     -0.56750555039846     -1.08557263364026
  C           0.42892829478134     -1.48652401952268      0.31470633965874
  H           0.51746469949153     -0.61496558921436     -1.64791212526338
  I          -2.97592300888772     -1.68456556660624     -0.12450795806009
  C          -0.17248951126065      1.51673114394237      0.88016853487921
  C           0.09137078731049      1.12415371024998     -0.45911242679698
  C          -0.94152472025716      1.57647718848481     -1.51565241457881
  O          -1.94331488783334      0.57925546283209     -1.57936407298443
  C           0.84281339768844      1.88181099358847      1.83728845360933
  H          -1.18442560657544      1.51257608906606      1.25284351693814
  H           1.11136304170263      1.35965303249651     -0.75334227180529
  H          -0.45069209027728      1.67025752026242     -2.48934240934125
  H          -1.43346535568658      2.51890790193406     -1.26395257636923
  C           0.62587121178150     -2.89329870483119     -0.23892238438884
  H          -0.25953627454725     -1.50884732448452      1.16112598904205
  H           1.38385059467257     -1.10514303625669      0.67730387060684
  H          -0.29835086583249     -3.28495748426104     -0.65513897327413
  H           0.95067035309943     -3.56151933242912      0.55355014665025
  H           1.38447690289646     -2.89346027506243     -1.01801914347889
  Cl          2.47540736999012      1.35212592755185      1.41538688772330
  Cl          0.95698236107430      3.74114242118045      1.99931181886485
  Cl          0.46492752977135      1.30037593721321      3.48201365469655
