17
Coordinates from ORCA-job NEB E -42.128773582500
  C           0.04333179442766     -1.44353790873740      0.24000945567583
  C          -1.34546165449511     -1.34276980530547      0.09866424735024
  F           0.52968485550337     -1.37735517640946      1.49188223887914
  H           0.60576925160696     -2.16158292921672     -0.35104089480020
  I          -2.08422709311475     -1.96033361408810     -1.82796532308659
  C           0.51916129905405      0.33688078746569     -0.39520401170375
  C          -0.25238459469309      1.15294954788612      0.43257429555639
  C          -1.66994537659481      1.05406319965474      0.32507981185505
  O          -2.01536967045687     -0.47364133146154      0.73790287059837
  C           2.02350441577653      0.42143643695036     -0.27299235712213
  H           0.22809592758165      0.20766385702597     -1.43509735012505
  H           0.17517965168257      1.48845149209546      1.36634471731477
  H          -2.08531478399173      1.08939942044486     -0.68095890651729
  H          -2.25119562108447      1.62268536907667      1.04010564181280
  F           2.45109823371869      0.62390128950516      0.97232891375688
  F           2.63566505803720     -0.68084169134574     -0.72929069963920
  F           2.49240830704217      1.44263105645940     -1.01234264980525
