17
Coordinates from ORCA-job NEB_reactant E -42.154095395890
  C           2.23743190949220      0.57368094173855      0.07412267382547
  C           1.55993137927004      0.48932986254679     -1.06300100471824
  F           2.78114746952946      1.72129907262745      0.53895611305019
  H           2.41130899875930     -0.26201859914518      0.72926018975689
  I           0.77048257179898     -1.38529171023972     -1.59678031419661
  C           4.21374011351161      3.32288829445752     -1.61021253887834
  C           3.29736812067105      2.62862753031645     -2.26253425434566
  C           1.83294080298334      2.68045590482391     -1.95596606826139
  O           1.23803443003769      1.39099826536331     -2.00238925412244
  C           5.66914654381780      3.26552460615917     -1.95290617689831
  H           3.98401171209058      3.97954534754931     -0.78512893297109
  H           3.57417023936648      1.96721566984700     -3.07388042530875
  H           1.31730886988624      3.23491586045020     -2.74749263034509
  H           1.64256558144114      3.16935970473752     -0.99558165181438
  F           5.94501583004506      2.43315299825637     -2.96563564521530
  F           6.14273252556305      4.47268864162922     -2.31003038914088
  F           6.41366290173599      2.86302760888212     -0.91089969041609
