17
Coordinates from ORCA-job NEB_product E -42.171146688700
  C           3.37100172164102      0.73147691970750     -1.42864142124939
  C           1.89358702880485      0.43505293125158     -1.30849181370277
  F           3.96984219819010      0.35886626858436     -0.25912489400728
  H           3.81591866361816      0.12508086869781     -2.23049880503497
  I           0.89475992384971      0.61817027363465     -3.21649051642145
  C           3.59710024546804      2.23542318484388     -1.68508645937709
  C           3.00355551082375      3.06786154487784     -0.57910623086380
  C           2.06361076409714      3.97003923798325     -0.78175525051178
  O           1.29534437001097      0.13768885136769     -0.34268564297260
  C           5.09647587115272      2.52438016361592     -1.81222883646913
  H           3.15614950066696      2.50302860051208     -2.65148265655149
  H           3.39948275793474      2.86554565832359      0.40607899561472
  H           1.66662696711769      4.17532485122573     -1.76280834253608
  H           1.65617925484837      4.54396900920123      0.03112027406708
  F           5.76979614471595      2.38826307862879     -0.67292313998835
  F           5.67881186562026      1.71657655912051     -2.71342965250796
  F           5.29685721143956      3.77795199842360     -2.23774560748765
