22
Coordinates from ORCA-job NEB_product E -56.976484508320
  C           1.51091506381657     -1.56148017189158     -0.05407790244858
  C           2.88519442561174     -1.83912195408758      0.61145223741135
  C           1.78401993787899     -0.96767781790552     -1.43513347454448
  H           0.99805696047984     -0.78978583972471      0.53527642460543
  C           2.97040613376398     -1.63412222806191      2.12223133490701
  C           0.62728107547112     -2.83574288014608     -0.05354497472956
  C          -0.37217984579207     -3.05393240579699     -1.14904540958855
  C          -1.67338986783017     -3.05621385198887     -0.92126580405790
  O           3.90492264008009     -1.86020335967784     -0.02092406437513
  N           1.52657201254218     -4.02176631236375      0.03359778072272
  H           0.08348443711825     -2.85005374799101      0.90278416429649
  H           0.01803563700784     -3.28895652502147     -2.12797722739800
  H          -2.08968121219357     -2.84989078492303      0.05112139229088
  H          -2.37373051718689     -3.24407409151601     -1.71439527649931
  Br          0.13897261750156     -0.27086233349046     -2.23026708685730
  Br          2.97270739598489      0.58285430217176     -1.30062801258347
  Br          2.58727798708636     -2.27118415505830     -2.63735491618516
  Br          4.61558646759851     -2.39070450198459      2.77635237516316
  Br          2.99511016591517      0.31573958958882      2.35421465575343
  Br          1.48438505943358     -2.33457452407886      3.13749035160400
  O           1.23663687154614     -5.02292923269633     -0.54187720052005
  O           2.49031655416589     -3.87021717335568      0.76787063303300
