29
Coordinates from ORCA-job R E -40.108511635300
  C          -0.83723051961277      0.23765516704315     -2.78896790791010
  C           0.58443281745123     -2.36118561436919     -2.17608195818310
  C          -0.67816089220197     -2.06780940041518     -1.88393570705731
  C          -1.35973673775743     -0.81936128845854     -2.17092060931657
  C          -1.29950876548735      1.49950770519532      0.64035511244368
  C          -0.53158881572749      0.44271436090063      0.87702879870140
  H          -1.28332629053660     -2.80761410822812     -1.37557086863543
  H          -2.39164906947311     -0.77091450389047     -1.84525610336945
  C          -1.59975773666809      1.48903048447689     -3.06500109564853
  H           1.01310723377626     -3.31303341118229     -1.91531115199989
  H           0.18942452288693      0.24825699963352     -3.12227171576231
  H           1.23953887607292     -1.66735748898738     -2.67259040482923
  H          -2.27728021801772      1.58960002497614      1.08326259558130
  H          -0.90347554457340     -0.33952457557215      1.52891687368679
  H          -0.99250791241249      2.31282853683172      0.00643856152946
  C           0.80373858330948      0.19796526340117      0.34707707675284
  F          -0.84922004501783      2.59901160610574     -2.73797074925549
  H          -2.52254421374913      1.54720350141942     -2.47924579173343
  H          -1.82873141646150      1.58762566774996     -4.13489126544539
  C           1.44312904536695      1.07052497439457     -0.53416712385826
  C           2.70679766916981      0.78606880149792     -1.01407534332120
  C           3.36310946113591     -0.37000931671010     -0.62323696215163
  C           2.74356827189548     -1.24277845051739      0.25514855582823
  C           1.47808158138530     -0.96179223239368      0.73193003190384
  H           0.94942787683577      1.97468375314042     -0.85248634273652
  H           3.18546734202690      1.47171225029376     -1.69888019373551
  H           4.35163657242318     -0.58839930019166     -1.00047500680105
  H           3.24875077125411     -2.14573448491552      0.56695471837334
  H           0.99935755270663     -1.64949492122863      1.41528397694954
