14
Coordinates from ORCA-job NEB E -26.280279319670
  C           1.02233856483750      0.98006236605006      0.39658463135278
  C           0.78362303088157     -0.07613973881849      1.25209062794096
  H           1.78372304642001      0.81048495946200     -0.35189091118571
  H           0.98011337442579      1.98846050696627      0.77833737063920
  I          -0.18825350873210      0.36832183526253      3.14175130924559
  C          -0.50594090173358      0.80874049085245     -0.90094645689746
  C          -1.09674443634742     -0.41841792669245     -0.63561022442972
  C          -0.22775330118303     -1.53359340451660     -0.50951508989056
  O           0.66667570180216     -1.27449295606602      0.85411677438110
  F          -1.24862348366016      1.91289492871119     -0.71478591393435
  H           0.14473257133065      0.94351238130361     -1.75903697603733
  H          -1.99408972464204     -0.40519936306477     -0.03026277249530
  H           0.56258520428753     -1.61800598196437     -1.25028476594009
  H          -0.68238613768689     -2.48662809748540     -0.27054760274912
