14
Coordinates from ORCA-job NEB_reactant E -26.312057875370
  C           1.96839428439177     -0.03843230967856     -0.23224954212942
  C           1.32006477871743     -1.16023413356316     -0.48444615894469
  H           2.57663237559270      0.41164062861297     -0.99807969961340
  H           1.92834674488026      0.44189089785563      0.72618112912999
  I           0.09920372930177     -2.02890258401969      1.06201827376674
  C          -0.82166286187386     -1.03000814034349     -4.02787746905951
  C          -0.59346565326988     -1.25812717186966     -2.74913467775050
  C           0.29587992910391     -2.35891044625179     -2.26441579141025
  O           1.45571982078897     -1.86318972844757     -1.61204090801975
  F          -1.61877199502289     -0.03675305688623     -4.43649382852357
  H          -0.42626827528486     -1.60130715457421     -4.85589522735577
  H          -1.03752688015960     -0.61933698373181     -1.99832900622494
  H           0.67561385876722     -2.95500468341092     -3.09602647401224
  H          -0.26155985593293     -3.01132513369151     -1.57591061985268
