14
Coordinates from ORCA-job NEB_product E -26.334818356170
  C           1.13846548612741     -0.01775014862415     -1.47869607895807
  C           1.78960969753733     -1.19938555384430     -0.84792430927744
  H           1.91836574171011      0.64280693777094     -1.86995947310104
  H           0.50585343602057      0.53307911491286     -0.78331220095818
  I           0.85711545685976     -1.81010509727530      1.01746387897613
  C           0.28283089344236     -0.49303489796492     -2.67576226727073
  C          -0.89962213171341     -1.29544526628683     -2.22425912781263
  C          -0.99066483359358     -2.60363824382917     -2.36649969100843
  O           2.69844545577885     -1.82538993176912     -1.26628316974423
  F          -0.14821417987644      0.63776171008337     -3.33803848506329
  H           0.90427062900969     -1.05189158728467     -3.38708843877960
  H          -1.68455313079281     -0.71849615498947     -1.75592979003657
  H          -0.21114645332455     -3.18144089406976     -2.83653403117788
  H          -1.84435606718529     -3.15136998682948     -2.00857681578804
