20
Coordinates from ORCA-job P E -25.608640721190
  C          -1.37790867469254      0.44233020776146     -2.34623677750735
  C          -0.09763674818885     -1.62486334479358     -1.12120613739150
  C          -1.47391500280728     -1.86885404732181     -1.65060770056951
  C          -2.10499408561131     -0.87177058995232     -2.24841921177483
  C          -0.80582028376422      0.82734336201341     -0.96291437602860
  C          -0.05967627581843     -0.33554607726029     -0.27759995016959
  H          -1.92201084604333     -2.84210305188724     -1.52779985078787
  H          -3.10230511312649     -0.94693809667332     -2.65129078419955
  C          -2.24029143383513      1.49027759924492     -2.83163852664158
  H           0.24706693339837     -2.46503615660974     -0.51854544070621
  H          -0.54432813042784      0.33901094519401     -3.05605948898002
  H           0.59605848642054     -1.51217076603737     -1.96166643866496
  H          -1.63760069103910      1.15258694566967     -0.33500428542519
  H          -0.56293627254720     -0.55510741048508      0.66943978488900
  H          -0.13733360071809      1.68129027905057     -1.08738325232610
  C           1.38757021638551      0.04363812496023      0.02833160257033
  N          -2.93423895795386      2.31324270490681     -3.21710403429296
  H           1.92394327689045      0.28026974558779     -0.88868348415614
  H           1.90022338304258     -0.77948254571638      0.52143090603667
  H           1.42615382043623      0.91047217234825      0.68409744612598
