20
Coordinates from ORCA-job R E -25.518838820290
  C          -1.15850204071139      0.02447080052145     -2.86506144891598
  C          -0.59428985842173     -2.62081209987087     -1.53953534260236
  C          -1.80145342112580     -2.11850285723078     -1.78898979565152
  C          -2.07854496775496     -0.84207794810287     -2.40948156431908
  C          -1.00520084882954      0.82543306254200      0.29572889839810
  C           0.19189233524307      0.28782370999465      0.43025052721441
  H          -2.67672928148944     -2.68875027757603     -1.50604214204581
  H          -3.12448961090111     -0.57711607437985     -2.49979135413141
  C          -1.50788590152744      1.25834475923607     -3.43195790134298
  H          -0.47368876261198     -3.57950293396982     -1.06554203874772
  H          -0.09708380891890     -0.17355439991066     -2.80997194575845
  H           0.31308554104163     -2.09867186432505     -1.79244333886788
  H          -1.87552105847449      0.40469232979440      0.77032624250109
  H           0.32357445966831     -0.60381781300350      1.03045106214525
  H          -1.16648512414283      1.71352677162859     -0.29368815474929
  C           1.43531420140943      0.82531822314943     -0.19638626411234
  N          -1.76713401665834      2.27892401174639     -3.89008734022305
  H           1.21344541327642      1.67230192901454     -0.84209285415284
  H           1.93552172845523      0.05114567737326     -0.77919253428113
  H           2.13270502247388      1.14861499336864      0.57654728964301
