20
Coordinates from ORCA-job TS E -25.504659289120
  C          -0.89810381422455      0.51241157108485     -1.43599850137382
  C           0.42679913977964     -1.63624076773974     -0.11872232702669
  C          -0.89874672442836     -1.68908604723937     -0.42132661111578
  C          -1.55637458987677     -0.63505463531983     -1.07961437325718
  C          -0.23103642550392      1.14777083804057      0.71385519506183
  C           0.54477400859165      0.16939377200633      1.24772060385603
  H          -1.51656287577900     -2.45657271664121      0.02423821119551
  H          -2.63668891507132     -0.65164735831742     -1.12786597994527
  C          -1.59875844686868      1.62768431216302     -1.92261084480498
  H           0.86831206689615     -2.41013582086074      0.48804150783253
  H           0.16383572931281      0.52194293317256     -1.62699526136162
  H           1.11669292180455     -1.08243514505772     -0.72864759478640
  H          -1.27247028509720      1.23229479279170      0.96866685725716
  H           0.11841191889989     -0.49205019970945      1.98789298192080
  H           0.21534892686291      2.00697865109397      0.24203225406333
  C           2.04223483380153      0.28780739956020      1.26071260068285
  N          -2.16413172654361      2.54860294153803     -2.31122538772118
  H           2.40490338560965      0.80027943212184      0.37216405019429
  H           2.53056862704833     -0.67998553144759      1.33883934777461
  H           2.34099224478630      0.87804157875999      2.12884327155399
