23
Coordinates from ORCA-job NEB_product E -55.889656354420
  C           2.22369592575128     -2.22862804343923      0.24085622053257
  C           0.87803473331018     -2.46684003205433      0.89898220238422
  C           2.13161437065658     -0.95188536174773     -0.61855561075758
  H           3.02788159697836     -2.07384381064038      0.96656278673512
  C           0.78614865468291     -2.27344584428169      2.40849836483173
  C           2.54148489127194     -3.44761631492493     -0.66264623933017
  C           3.77326422821842     -3.22361975572962     -1.49594619669903
  C           3.76251482624741     -3.21943616817375     -2.81439072916611
  O          -0.11326988510676     -2.72518357840161      0.28242913280747
  C           2.74775688923085     -4.69293087153960      0.20160106468234
  H           1.67327445545316     -3.62781700457446     -1.30610344748077
  H           4.68472550023534     -3.06441819354096     -0.93730305089303
  H           2.85538694808506     -3.36164788335402     -3.37808747085713
  H           4.66166880509656     -3.05589255547555     -3.38109526926643
  F           3.36899003485167     -0.53826419066462     -0.96472609092261
  F           1.46236601103711     -1.17438926594058     -1.76421828699103
  H           1.64065852553096     -0.11610742984284     -0.09579763879614
  Br          0.74720775536449     -0.31509926178817      2.61584304909948
  Br         -0.87450457011864     -3.00853171379457      3.05216692603968
  Br          2.25911494406096     -2.96642189132957      3.44051707516847
  F           3.81015910676969     -4.54549337595240      1.02392798942642
  F           1.67867727176845     -4.90634739637724      1.01233492069363
  H           2.90234898062401     -5.60024005643217     -0.39904970124107
