17
Coordinates from ORCA-job NEB_product E -40.681984349710
  C           3.00341084741252      1.56990555022148      0.74183786661281
  C           1.51844120719027      1.77428654699799      0.64055531544810
  I           3.26192274702920     -0.39019627885486     -0.13998064398193
  H           3.54970274392655      2.25551485111938      0.09432253288413
  C           1.07816662009959      2.64703888227017     -0.54742179407277
  C           3.48085047032473      1.66350112054655      2.17794806592386
  C           2.85468636117012      0.70130943155922      3.11748311263285
  C           2.32875489782569      1.05534777617738      4.27625753252694
  O           0.71361471119635      1.36408557451853      1.42377078122565
  I           5.65382145679976      1.40881349864994      2.21639055105634
  H           3.31975568655370      2.69069570286928      2.51610207574080
  H           2.87226037952018     -0.33611655477276      2.81067548806722
  H           2.30960148927400      2.08119819767890      4.60676641633264
  H           1.88550842405683      0.33018867892720      4.93473553125061
  Cl          1.52020410081234      4.29740936572280     -0.00030085438218
  Cl          1.92423861375862      2.28432110435463     -2.05451315009002
  Cl         -0.66474075695045      2.54599655201416     -0.79122882717504
