18
Coordinates from ORCA-job NEB E -32.735691537470
  C           0.19395211216353      0.39525768436682     -1.97219490353870
  C          -1.27073167572850      0.61262420910345     -0.15451099264683
  I          -1.13432878504230      0.05922732272681     -3.64374226271592
  H           0.16858564346968      1.39374939901990     -1.62242667088811
  O          -0.86751515204398      1.78682998765744      0.21133464340987
  C           0.59202168525877     -0.72474042684158     -1.48697763049349
  C           0.82000685969274     -1.68534156222697     -0.58275134555275
  C          -0.62727576147953     -1.66745577478088     -0.04707173187241
  O          -0.62595788319091     -0.36590906746954      0.53053504062865
  Br          2.19438625468793     -0.93617091213316      2.28755497806338
  H           0.95743465887126     -0.84684123055127      1.61584751728998
  H           1.45406450597798     -2.34996814122286     -1.13947117497897
  H          -0.94844008106207     -2.39651772686837      0.71252414528955
  H          -1.33235557949506     -1.75941047147028     -0.88838775742337
  C          -0.05704546772153      2.05107435457343      1.32836539866099
  H          -0.16252358557654      3.11869179742863      1.52905586552162
  H           0.99352560957663      1.83572844252405      1.11129944678472
  H          -0.34780335835810      1.47917211616437      2.21101743446179
