18
Coordinates from ORCA-job NEB_reactant E -32.892288670900
  C           2.07208582790965     -0.14062476048275     -0.02293674403118
  C           1.92560566302094     -0.01918630813186      1.29934977449859
  I           1.92766958437358     -1.84712699523655     -1.23561280894141
  H           2.20059998889790      0.76423204634769     -0.58688234117268
  O           1.95147165391089      1.25964666401956      1.76190568331208
  C           4.54942176465738     -2.80108476304279      2.94501513337087
  C           3.73862449301145     -2.27329922265608      2.04622775503321
  C           2.25050733376944     -2.24520859243195      2.21487197348342
  O           1.73828085348039     -0.92312960540033      2.28765176387707
  Br          6.42430422820158     -2.84159817496566      2.72948509387631
  H           4.21586018961918     -3.26545026614719      3.85990220146914
  H           4.13027583560513     -1.81759092166445      1.14791463305248
  H           1.96100030263226     -2.68886984279617      3.17105896888459
  H           1.77012250129352     -2.80845182384509      1.40759328528298
  C           1.90679888613376      1.45946249494288      3.16272048781036
  H           1.97684953448860      2.53665476929165      3.29652258563794
  H           2.74518071560591      0.96756890160399      3.66242410688111
  H           0.96954064338842      1.09065640059510      3.58528844767513
