18
Coordinates from ORCA-job NEB_product E -32.929563506160
  C           3.93616442381856     -0.36136494113591      1.34774426545552
  C           3.00814620822796      0.12479792968436      2.44775653732865
  I           3.32841229893408      0.33980779271273     -0.58540947442351
  H           4.93107585492635      0.05507249103239      1.52492018508843
  O           1.95838391610531      0.78255261729320      1.98996155072696
  C           3.99170518657733     -1.88158094165006      1.44701975134422
  C           2.67678581857625     -2.53430965585444      1.19792554130721
  C           2.04901208492062     -3.26282586967096      2.10197623171201
  O           3.22428559696534     -0.10355577121066      3.60900101695186
  Br          5.32413958915162     -2.58041370076793      0.17043525649267
  H           4.37242651599734     -2.14082941840248      2.43982317086704
  H           2.25669280232137     -2.37870420845637      0.21265424550981
  H           2.46110916764158     -3.43238934487086      3.08364082841713
  H           1.09437637616953     -3.71437182285122      1.89571042553335
  C           1.02380339115061      1.25217432980558      2.95295015811479
  H           0.26273601022497      1.79037319060407      2.39462695467299
  H           1.51887597476489      1.91157222243546      3.66787521878546
  H           0.58586878352631      0.40989510130309      3.49158813611540
