20
Coordinates from ORCA-job NEB E -31.974764741800
  C           0.23241087697248      0.12642719465751      0.78083161550537
  C          -1.13595360841782     -0.13103723743298      0.79304721641850
  C           0.71492639219269      1.22674947920799     -0.13450757761101
  H           0.74197328889738      0.10068282168820      1.73968665001973
  Br         -1.81884561717789     -1.10537960239434      2.36214980044575
  C           0.74849263205199     -1.57343288798134     -0.07278550821276
  C           0.00326740033309     -1.57533532035972     -1.24296321966630
  C          -1.41632587060260     -1.60423711675924     -1.10528527434599
  O          -1.81757884413835     -0.26565395412983     -0.27340723128774
  I           2.86890823095298     -1.59733847537869     -0.21082196915377
  H           0.44011313459975     -2.20995261278969      0.74704074883780
  H           0.42745518969864     -1.16314499960069     -2.14617801281172
  H          -1.82076295111949     -2.36752261838594     -0.44270887076256
  H          -1.99136775561336     -1.49917028771035     -2.01714089810647
  C           0.50942739556343      2.58243924559197      0.53851251079475
  H           0.15874618743452      1.19748369915635     -1.07307077402911
  H           1.77615868892270      1.09846926642064     -0.35116642723849
  H          -0.54621827836663      2.75411524647992      0.73609020456508
  H           0.87485096583334      3.37577751842191     -0.10827502198605
  H           1.05032254198314      2.63006064129827      1.48095203862497
