17
Coordinates from ORCA-job NEB_reactant E -29.743561561530
  C           1.76150813148152      0.00280734839060     -0.02816892272193
  C           1.06824680575483      0.73284201539376      0.83543837307953
  C           2.13819151168896     -1.42197834572495      0.21414849293802
  H           2.08570840113339      0.43433854801998     -0.96002504167762
  H           0.81067844513053      1.76514704617755      0.62598550022529
  C          -0.37130991478731      0.65686578469451      5.30386361133345
  C          -0.59377321397144      0.39776821037882      4.02858288532651
  C           0.04871323719044      1.15877638257884      2.91206409024748
  O           0.61196708375695      0.22539119648700      2.01205422901707
  Br         -1.21622304709292     -0.29452336067521      6.69605049535218
  H           0.28516037334276      1.43569371549236      5.65889294037606
  H          -1.25168266570271     -0.40234445949860      3.72251223694479
  H           0.82225418178877      1.83785654614522      3.29771324889071
  H          -0.71706292519652      1.76105896936429      2.39682574183858
  F           3.40794349486604     -1.67163102608305     -0.25618391570902
  H           1.47396101396169     -2.11169938760615     -0.32275865490978
  H           2.13251908665502     -1.65666918353501      1.28250468944867
