17
Coordinates from ORCA-job NEB_product E -43.060573902690
  C           2.00718060329020     -0.79644699626425      1.52215672869844
  C           0.75822873203457     -0.03506460557507      1.92525614139482
  F           1.73651211905780     -1.54376517906389      0.41198770441539
  H           2.83496210831101     -0.11961651238411      1.27672859163804
  C           1.01388235113704      1.22900898641497      2.80670687088027
  C           2.42395695064783     -1.77393971471659      2.66045042295366
  C           3.69543152588167     -2.47661425247284      2.29568293487493
  C           3.72828607626010     -3.69448691783015      1.79048851212352
  O          -0.35499117758565     -0.35103296452189      1.63994848538290
  F           2.59453840566899     -1.03764742909240      3.80545679067103
  H           1.60053612409971     -2.47698744617478      2.83962160826238
  H           4.59009052843577     -1.89519879570854      2.46574849973067
  H           2.82975177314394     -4.26308657247257      1.61880726295391
  H           4.65684320036372     -4.16436471131351      1.51922972878686
  F           0.63358285488031      1.01910556642686      4.06602707870120
  F           2.29746067528064      1.60495042435722      2.82270616703759
  F           0.31094714909234      2.26308712039154      2.33729647149438
