17
Coordinates from ORCA-job NEB_reactant E -37.790210563340
  C           1.84443684908806      0.01140614848472     -0.00537274663529
  C           1.18333462348237     -1.14969337521829      0.23093620997492
  N           2.15228442674927      0.49910766696483     -1.30285743225558
  H           2.17896547134118      0.64046108603348      0.80402080985031
  C           0.95263374169649     -1.47329649511097      1.60624685124658
  C           0.17574466953544     -5.22723393322411     -1.70833210774023
  C          -0.13076561069257     -3.94346934332891     -1.61849344825812
  C           0.05871157923948     -3.14624118808010     -0.36673494330852
  O           0.76375413776320     -1.96108355490865     -0.72514981123477
  Cl         -0.06277694049904     -6.13851529002232     -3.13558865988478
  H           0.57713221411642     -5.80122807452699     -0.88581620593832
  H          -0.51729249641164     -3.39211992502958     -2.46173142994267
  H           0.61703400503557     -3.71654883226594      0.38544362487829
  H          -0.91841039832273     -2.86980127584770      0.05613278984823
  O           2.76669484976100      1.54694743792055     -1.34365614335308
  O           1.79319626967408     -0.13578828867180     -2.27050033916525
  N           0.76612260844344     -1.73290276316824      2.70525298191827
