17
Coordinates from ORCA-job NEB_product E -37.780435246890
  C           1.50207678575951     -1.47190938601889     -0.34420976393129
  C           2.86946644608124     -1.77668633019541      0.29322613741426
  N           1.71874707243074     -0.85852203139756     -1.69273768847640
  H           0.97522048735986     -0.72189375102627      0.26015774184365
  C           2.72296651812216     -2.51297527164813      1.53915566857956
  C           0.67261376006632     -2.76397416558045     -0.42849261088748
  C          -0.45814348940986     -2.69538717654117     -1.40106596979476
  C          -1.71954188315700     -2.86219968128369     -1.04800630796248
  O           3.92035486905022     -1.42348057576846     -0.14983805179053
  Cl          1.79971952741202     -4.11063567437627     -0.90250716986450
  H           0.30803823422729     -3.01642266102383      0.57107469049888
  H          -0.18475396973174     -2.53383399452890     -2.43387747875655
  H          -2.00702763133832     -3.04390953488029     -0.02552739556139
  H          -2.51428450823280     -2.81889091720643     -1.77119515184775
  O           1.31689493698396      0.26899021350949     -1.82309285968777
  O           2.26035111214716     -1.52726906105870     -2.52622964755728
  N           2.60950173222922     -3.05890000097503      2.53746585778183
