25
Coordinates from ORCA-job NEB E -31.668973117180
  C          -0.66043600309398      1.08510993458951     -0.31923956395450
  C          -1.61337725649777      0.51615527564843      0.53578170464226
  N          -1.00384782941447      1.33771084284153     -1.64275673355670
  H           0.02854376957146      1.81238188874839      0.09175189155982
  C          -1.41049201748401      0.63654042443989      2.02464968451439
  C           0.55178240988463     -0.64005040360356     -0.41314625568333
  C          -0.19937080986806     -1.69073261080764      0.10128684857202
  C          -1.49099958522812     -1.90637252545520     -0.38573496407825
  O          -2.38233604761830     -0.41045897192171      0.09123035172985
  C           1.86511862205839     -0.27091220959471      0.23103673788056
  H           0.53966358264456     -0.53349003801953     -1.49160090549292
  H           0.01812637758851     -2.02114574885682      1.11027457440219
  H          -2.11032418383856     -2.65571518067451      0.08267015660763
  H          -1.66438614538355     -1.79377875422868     -1.44729526446834
  H          -1.70455365887300      0.69402844744551     -1.98639402861785
  H          -0.23310201680022      1.45940074597519     -2.28360293601518
  H          -0.73638105887369     -0.15511699149720      2.36158484693801
  H          -2.36214238300334      0.49935231752049      2.53140033226017
  H          -0.98938058359171      1.60115168278605      2.29169333283278
  C           2.69919777428696      0.68466145049747     -0.61455614164871
  H           2.43975744252386     -1.18780137997409      0.39640200104348
  H           1.68028310011861      0.16979253740269      1.21393230394413
  H           2.91955115691040      0.24158328248376     -1.58391480290990
  H           3.64247760660324      0.90307367831980     -0.11904199057866
  H           2.17662773737818      1.62463230593495     -0.77641117992296
