21
Coordinates from ORCA-job R E -43.583512531710
  C          -1.22081160135204     -0.01295989114353     -2.77202636686571
  C           0.51419868653528     -2.43572796174919     -2.29717905286259
  C          -0.80173833966628     -2.36707639763380     -2.11076196491310
  C          -1.63268046879182     -1.19742109694173     -2.31336714804797
  C          -0.73308226164400      2.09381339816729      0.32975403819919
  C          -0.65193801475934      0.84391923371582      0.75528616104023
  H          -1.33633226210676     -3.24754168953787     -1.78089175206644
  H          -2.67865510546646     -1.32294493651889     -2.06383982226802
  C          -2.13422645772757      1.13450434444261     -2.98893773236843
  H           1.03930833267666     -3.35503385071432     -2.10443641652692
  H          -0.19336550536662      0.16371032020726     -3.04941108920661
  H           1.10840761047631     -1.59558219382254     -2.61022799805164
  H          -1.44931587933733      2.78631931802827      0.73403853612432
  H          -1.25894906331129      0.41404388266032      1.53999864795223
  H          -0.07712730278458      2.44839874010792     -0.44998744652231
  N           0.29654900152071     -0.07987790190903      0.19673034866378
  Cl         -3.34388694280283      1.29419422894608     -1.69096597910050
  Cl         -1.23486834503934      2.66052683345291     -3.08560406705094
  Cl         -3.02750153464751      0.92818776751457     -4.54014472454812
  O           0.25011299383586     -1.21837926253265      0.61436981697304
  O           1.06776245975896      0.31540711526048     -0.64921598855350
