20
Coordinates from ORCA-job NEB E -49.878136151180
  C          -0.32836728689106      1.04661562599218      0.54910748156761
  C           1.01895923453341      1.36666021420000      0.39408702804174
  C          -1.34783566321096      1.58796172442187     -0.42407622684112
  H          -0.69405952851354      1.07078574814687      1.56882402836059
  F           1.72706057478617      1.37824084216344      1.56645504176349
  C          -0.25303040253195     -0.93666891632518     -0.06029370085042
  C           1.06385088413979     -1.15939410522363     -0.44817434561897
  C           1.60646881737710     -0.30865918274181     -1.42885197307122
  O           1.70556711771047      1.22849751988124     -0.63819916682135
  C          -0.82834863346323     -1.72323197686716      1.08184172536371
  H          -0.97071799265880     -0.76107197379322     -0.85240446697777
  H           1.73897020855653     -1.61628468916440      0.26317617784072
  H           0.96734650774882     -0.00772472332959     -2.24965470725188
  H           2.64627313703263     -0.43213835410843     -1.69668007845974
  F          -1.49909017365216      2.92123499540950     -0.22637106133045
  F          -0.97616172633199      1.44418275277465     -1.71683814369312
  H          -2.33912064022321      1.12376804721214     -0.30027813634580
  Cl         -0.94969850963673     -3.44233655500529      0.59464532583437
  Cl          0.18075310952803     -1.61742055420000      2.53857691492574
  Cl         -2.46881903429930     -1.16301643944317      1.48510828356386
