20
Coordinates from ORCA-job NEB_product E -49.932739683180
  C           1.80411049090932     -1.93631197748453      0.09594040629314
  C           3.03039478300225     -1.41433775644516      0.82333801853841
  C           1.46932656605781     -0.97301541611145     -1.05658596843030
  H           0.95501872142947     -1.90566146809530      0.78776180761909
  F           2.68806457578353     -0.99955359045901      2.06871525530197
  C           1.96782786608662     -3.37310992649312     -0.44978609244485
  C           3.17670578334693     -3.52665895017855     -1.33459697354662
  C           3.09885477946114     -3.92820651645951     -2.58842488702988
  O           4.13493194835235     -1.28532961922830      0.44180078618561
  C           2.01352289929194     -4.38798066930928      0.70027045819065
  H           1.06932273490144     -3.61231102782180     -1.03195980620889
  H           4.12653979045328     -3.28282822846174     -0.88553379623709
  H           2.15969742634245     -4.17414724239051     -3.05698315320518
  H           3.97815609862365     -4.02715597353844     -3.19886408739838
  F           1.12890558620105      0.23629946976763     -0.56046101951379
  F           2.51480801506337     -0.77178501316904     -1.87829858046055
  H           0.62482214226659     -1.33620158357235     -1.66492853649179
  Cl          2.19103937025387     -6.02512723921120      0.03233749767398
  Cl          3.36850197229503     -4.06945907646284      1.80421940533695
  Cl          0.49704844987792     -4.34001819487550      1.63993926582753
