20
Coordinates from ORCA-job NEB_reactant E -49.916418804660
  C           1.96301186712349     -0.01041045939261     -0.05785259333177
  C           2.75929605044709     -1.06753361187857     -0.22028861397374
  C           0.87543092647362      0.30252434247515     -1.03199095915552
  H           2.10946230487329      0.64183552830827      0.78226515814303
  F           3.71733786433890     -1.31237196836210      0.69303405119194
  C           2.58058550782609     -5.34374042367332     -0.56440361851493
  C           2.89359230157313     -4.10282793619234     -0.22868609566911
  C           3.47384462295368     -3.11064873894502     -1.19081972556824
  O           2.71112749421875     -1.91065439951685     -1.23506787081270
  C           2.02749614653129     -6.37362133067434      0.35277161354358
  H           2.73135496626322     -5.70690440630520     -1.57169192586677
  H           2.73637274036680     -3.74259262954080      0.77856257463853
  H           3.45079970323852     -3.48936156594940     -2.21367934819684
  H           4.51129991322496     -2.88913099343475     -0.90606619466516
  F           1.36709090501129      0.56235934436051     -2.27339349234820
  F           0.02520640699876     -0.74609876839289     -1.19106393420641
  H           0.27571362035440      1.17257546714945     -0.72628118243494
  Cl          0.49637297942733     -7.00159461276937     -0.32252796543873
  Cl          3.18847086742744     -7.73471945043502      0.46015769531800
  Cl          1.71493281132795     -5.78438338683081      1.98882242734796
