16
Coordinates from ORCA-job NEB E -30.193645931040
  C           0.68818912583377      1.26459051711124     -0.22682960182674
  C           0.58403696047274      0.91114792730185      1.10536147165082
  O           1.78306818274495      0.88712968411308     -0.94368938859128
  H           0.23909735511737      2.17056212716078     -0.60802325419190
  I          -0.98637873611724      1.95927542221165      2.18298672397426
  C          -0.71692536431729     -0.25092384935612     -0.94334937834900
  C          -0.92369728959285     -1.07963553291563      0.15335365857431
  C           0.14930313112219     -1.65861791149929      0.81224922549809
  O           1.01749741797343     -0.15945133760716      1.57108866550895
  O          -1.76980520304195      0.44585235288015     -1.42186657470240
  H           0.07086546140543     -0.49422303276092     -1.65050591453985
  H          -1.85832396444887     -0.94987950052739      0.68160728803881
  H           1.02536372684686     -1.95083803489579      0.25193133774934
  H          -0.02683945691850     -2.22264575460364      1.71292335854596
  H           2.27939441980634      0.23277473042491     -0.43034662733823
  H          -1.55484576688639      0.89488219296229     -2.24689099000115
