20
Coordinates from ORCA-job NEB E -32.605797495360
  C           1.24466380354857     -0.68425717466299     -0.31762191875390
  C          -0.15807275405077     -0.58719737240862     -0.22412444931098
  F           1.86451101155456     -1.64118050710382      0.41209596805313
  H           1.71716458028993     -0.61497672793374     -1.29570886531227
  C          -0.92952810075820      0.12153136169687     -1.30675886294525
  C           1.72201881676346      0.84415929925242      0.63796635368018
  C           1.16142925817372      0.60674919146566      1.89815233597206
  C          -0.25953499433462      0.49780131457313      1.94816819721122
  O          -0.68710399913175     -0.69778025702628      0.96405969594065
  I           3.84548727684624      1.01036535725318      0.51209497188599
  H           1.27425747867871      1.60196285064316      0.00516389682234
  H           1.74345361679720      0.07353720081206      2.63428651495169
  H          -0.81653925220107      1.32518547031722      1.50956208290045
  H          -0.67440688019783      0.18387714659693      2.89868806636991
  C          -2.14745424920184     -0.70434615222243     -1.72327828837152
  H          -0.28527510150427      0.30426044558441     -2.16744245465376
  H          -1.27785942367929      1.08560314288980     -0.91675308606826
  H          -1.83139997773545     -1.64422228358300     -2.16840276374740
  H          -2.74579826403421     -0.15761468205377     -2.44753741014466
  H          -2.76001284582308     -0.92345762409018     -0.85260998447961
