20
Coordinates from ORCA-job NEB_product E -32.653745417190
  C           2.07364426652568      1.96651257232973      0.10777930978747
  C           0.79999670565942      2.39789096071364     -0.65834798650705
  F           1.81986567195948      0.71903770217660      0.65055651675071
  H           2.93214138925312      1.83518748560594     -0.56199373072852
  C           0.90171075740856      2.27673363079850     -2.15174591388105
  C           2.37766911943907      2.93986836324422      1.23691317345872
  C           3.52087441754435      2.51650058224433      2.08052533843784
  C           3.46085601332632      2.44638813457634      3.39839042099523
  O          -0.17003175194464      2.77140992074729     -0.05923625267010
  I           2.82320704306693      4.85049120560643      0.28070812914838
  H           1.47540318274829      3.10848205775120      1.82587320161694
  H           4.42643973296690      2.25695139486981      1.54759687870084
  H           2.56633764937353      2.70445361192871      3.94105178160356
  H           4.30238068273835      2.12131645440455      3.98443546886396
  C          -0.37706110185748      2.70935456736217     -2.85431559879242
  H           1.14168303176189      1.23396477451563     -2.38127832436966
  H           1.74902222152643      2.88472052164193     -2.48313325103818
  H          -1.21446473017572      2.10401394074674     -2.51727689677801
  H          -0.27338220629045      2.60122047406788     -3.93035375002279
  H          -0.59589209503003      3.74880164466834     -2.62404851457587
