20
Coordinates from ORCA-job NEB E -37.758981187560
  C           1.07372737689195      0.00368092870079     -0.53999225723926
  C           0.51685755519075      0.52661626309360     -1.71878143106438
  C           1.08687577306618     -1.49648722582454     -0.37339318808421
  H           2.04087684754740      0.39971256231473     -0.24327216491365
  H           0.89918284978565      1.48582569159709     -2.07918467795921
  C          -0.19014082465158      0.66916775398114      0.75820782695362
  C          -1.40540115554271      0.20175753276585      0.24265226453855
  C          -1.81991753624345      0.64003328932741     -1.04403702454885
  O          -0.66313066517298      0.15877319149994     -2.09342115370490
  C           0.24899535061979      0.22358603252511      2.12748202326053
  H           0.03552647659260      1.71685045168563      0.57509633855143
  H          -1.79102261117272     -0.73854481014913      0.60732790254621
  H          -1.79788426694884      1.71158828845058     -1.22515484490793
  H          -2.70332927333788      0.16649776786251     -1.45334211931242
  F           1.85650896394841     -2.05043735506022     -1.33411709409876
  F           1.65060533895932     -1.87826329587724      0.78771954384466
  F          -0.09047427642849     -2.11446336401876     -0.44083473095232
  H          -0.02141417608623     -0.81133475420950      2.31636076798111
  H          -0.24796755295566      0.84767146910909      2.86966049175860
  H           1.32152580593849      0.33776958222591      2.26102352735117
