20
Coordinates from ORCA-job NEB_reactant E -37.799432835330
  C           2.16577990066287      0.23411122466910      0.85974086319056
  C           1.21573073807666      0.97095800888060      1.43895044440784
  C           1.87607594856555     -1.10729896947545      0.27827887816634
  H           3.18120917680261      0.57407585088384      0.78317490028185
  H           1.46363255156657      1.93986894346755      1.86199724089983
  C          -0.36305230485120      2.71588055974964      4.29359029085860
  C          -0.57490405722211      1.56437836549052      3.67771383435556
  C          -0.94186012462333      1.43637664970103      2.23028134599279
  O          -0.05231788011156      0.57353942367174      1.52732209491048
  C           0.00038919655654      2.85253058771308      5.73170867230532
  H          -0.47099862043129      3.64694951969518      3.74969378964975
  H          -0.46779629300692      0.62529451893861      4.20308810579855
  H          -0.96810702780939      2.42150367957082      1.74722549632651
  H          -1.92012869875253      0.95890494001202      2.12213688839587
  F           1.37493726241449     -1.97961932458349      1.17366497041243
  F           0.98923331631132     -1.07213800842003     -0.73491933789807
  F           2.98554890044338     -1.68002796715912     -0.21875437825193
  H           0.10027935385373      1.87931362342675      6.20441845636063
  H          -0.76377021145547      3.42444235948495      6.25696630317840
  H           0.94061887301009      3.39385601428266      5.83122114065867
