23
Coordinates from ORCA-job NEB E -35.976519619580
  C          -0.09799036846240      0.21555759922969      1.20042744243999
  C           0.86969398692668     -0.39802885174990      0.52566661075374
  C          -0.76577563340547      1.48279795358070      0.78502931577592
  H          -0.43643032158332     -0.22050628970407      2.12907958987327
  C           1.47688294645001     -1.70336898971617      0.96761600335279
  C          -0.96789953161385     -1.82788083805583     -2.03450713253479
  C          -0.20428398446794     -0.83290466471967     -2.11622228636074
  C           1.26446265544249     -0.60871820987269     -1.79353716569529
  O           1.38763651630547      0.16481329059307     -0.63257601426535
  Br         -2.97853126214924      0.36329961823863     -2.46840310023319
  H          -1.65180373721820     -2.62925092460894     -1.99827967756071
  H          -0.74717507603186      0.13577874274367     -2.34356183083169
  H           1.73431544615173     -0.02871765737014     -2.59140590053652
  H           1.75504032788669     -1.58443517455362     -1.70034228585764
  C          -0.82788543964536      2.48737176490563      1.93265647399980
  H          -1.78417823871194      1.24108392312135      0.46598569237900
  H          -0.23882808542501      1.91711380674305     -0.06453757874113
  H          -1.34854621965527      2.06193963776920      2.78796643819557
  H          -1.35832448416661      3.38200015061456      1.61721500122226
  H           0.17495364289522      2.77178300402154      2.24412977736428
  F           0.86360670630802     -2.77781426123315      0.34263998838584
  H           1.34243572028648     -1.85422261527904      2.04095254379498
  H           2.53862443388370     -1.75769101469786      0.70400809507962
