23
Coordinates from ORCA-job NEB_reactant E -36.078167745960
  C           2.06087328419243     -0.30588145803747     -0.50049495141688
  C           3.08819955397852     -0.83022008471421     -1.16260282449984
  C           1.38595307802622      0.98026233544359     -0.84488016131424
  H           1.68776102605437     -0.82321097815399      0.37173194983935
  C           3.70999932120405     -2.14854749138523     -0.77030805204625
  C           1.26776927426203     -1.75931597132755     -3.75557745141960
  C           2.12131140826389     -0.77305452329844     -3.96186770151515
  C           3.54356137585720     -0.84144091630958     -3.48442780105438
  O           3.66713787989101     -0.17600158427257     -2.23077774880211
  Br         -0.55558997796329     -1.63801105818701     -4.23134630700115
  H           1.52794625900949     -2.70675115214631     -3.31084363543923
  H           1.80032506044080      0.16464934086257     -4.39138515779276
  H           4.20623470148234     -0.29686473523060     -4.16015095898346
  H           3.87342092967504     -1.88409725898459     -3.40950111340719
  C           1.40831107936351      1.94936560315408      0.33564537273903
  H           0.34629427050069      0.76845182213794     -1.11265592667421
  H           1.88134970882879      1.43118926727892     -1.70486975515071
  H           0.91037610843616      1.51291584860270      1.19870000213177
  H           0.89849953271944      2.87299799160468      0.07365374843552
  H           2.43361171756230      2.18527401932352      0.61049893336767
  F           3.06453782874899     -3.20951970778045     -1.38484985151368
  H           3.62308200593500     -2.32073918445757      0.30504421562876
  H           4.75783457353100     -2.19875012412243     -1.08233482411124
