23
Coordinates from ORCA-job NEB_product E -36.088373696630
  C           2.45312009169391     -0.83848578117128     -1.15782205580328
  C           1.20632721804105     -1.71805535917760     -1.07796706189962
  C           2.05609111650238      0.58276357119165     -0.71981975663086
  H           3.21784837767652     -1.22952406631342     -0.47786756489129
  C           1.37697076627486     -2.92705864502022     -0.17535955906049
  C           3.03195117850611     -0.83370374770586     -2.57732650587714
  C           2.12392112650432     -0.30057327195096     -3.62524243112421
  C           2.49717552432614      0.61751899587930     -4.49905024043574
  O           0.18722966848780     -1.46795591548275     -1.65783272460548
  Br          3.52279455741714     -2.70950044501170     -3.05814663779270
  H           3.99131808151049     -0.31287813826818     -2.58685272420650
  H           1.12871427473534     -0.72112309635026     -3.64661370744728
  H           1.82315308482413      0.98423207830914     -5.25287948715326
  H           3.48998697661956      1.03962169856701     -4.49847216627072
  C           3.24012613199027      1.53617325807830     -0.62322880762764
  H           1.57651582219759      0.50929447384893      0.25929806463753
  H           1.31791108012800      0.97310544629785     -1.42237459216016
  H           4.02296135642332      1.11769078839544      0.00601458136788
  H           2.91709147082889      2.47666278049917     -0.18464939857769
  H           3.65609238640824      1.75029364892248     -1.60392071359606
  F           0.20818036151360     -3.61229167867646     -0.02435564155527
  H           1.70575423778580     -2.61258668450205      0.82250444478900
  H           2.11246510960454     -3.61601991035853     -0.60953531407902
