18
Coordinates from ORCA-job NEB E -32.638594079450
  C           1.09100883579330     -0.13172862637246     -0.73455518222289
  C           0.58310601944520      0.95252461027890     -1.48386506427719
  N           0.61279190369902     -1.45412017092053     -0.85527392589788
  H           2.12229678129502     -0.10116792958525     -0.40693282839872
  H           1.28172992645329      1.80138759595395     -1.58541643738919
  C           0.07247844594726      0.18315122902421      1.11564634805715
  C          -1.23582354221117      0.14595827457119      0.57681692019178
  C          -1.72223549479339      1.17514759839927     -0.17491363567210
  O          -0.59741847598752      1.08595786975493     -1.82833214422949
  N           0.51361823018033     -0.78312845269869      1.95173338367115
  H           0.53091888581074      1.15388334622980      1.26599487330973
  H          -1.73435891572815     -0.81270707878864      0.54565142031217
  H          -1.36137749608175      2.18158243071820     -0.03644311221756
  H          -2.67435568557027      1.08007900544250     -0.66620094615298
  O           1.19961168589624     -2.28767143229094     -0.16734237252344
  O          -0.33373035147664     -1.71393128186820     -1.56445899772769
  H           0.17710097988997     -1.72456769269697      1.79426100767530
  H           1.47463826743852     -0.75064929515128      2.25363069349185
