18
Coordinates from ORCA-job NEB_product E -32.657726449050
  C           1.65711437267292     -0.07454405249323      2.23806102060736
  C           1.09000532447049      0.67492259243013      1.04424863109656
  N           1.54335538203150     -1.53805216219120      2.01433286558972
  H           2.72891957305608      0.14023600231508      2.31128084642129
  H           1.22878308240844      1.76720398734181      1.14618058239918
  C           0.93867870019496      0.40882299227293      3.52847370877441
  C          -0.55607652971818      0.46961250362127      3.32533888841736
  C          -1.25493069701841      1.58625818672441      3.40062035979935
  O           0.54538968822123      0.18430299878145      0.10578673941913
  N           1.35607339526262     -0.44106839124846      4.63105665003772
  H           1.31492389932539      1.41904042661408      3.73291564564005
  H          -1.03608967181455     -0.48149140848332      3.14464295437160
  H          -0.78832135731371      2.54074637108727      3.58742645441280
  H          -2.32369318603129      1.59549496786565      3.27620688470591
  O           2.46200230658947     -2.04867223646548      1.42843252048162
  O           0.55945677039497     -2.10612604962011      2.41284166870294
  H           0.91536751803906     -1.35364205116376      4.55861733645436
  H           1.07684142922901     -0.03434467738853      5.51533624266861
