20
Coordinates from ORCA-job NEB_reactant E -44.262845635530
  C           1.82552022277849     -0.22047081759294      0.12513403621137
  C           1.66439255859857     -1.51434458687630      0.44031221458527
  C           2.21694775204659      0.40519481489418     -1.17424258059574
  H           1.65064249201630      0.50069131815249      0.90915179931174
  C           1.25303398889622     -1.83687012736120      1.86380687089525
  C           3.36878295852595     -4.69145546172810     -2.59007711735277
  C           2.34800298493423     -4.17113845895082     -1.93789542264504
  C           2.23459523785922     -2.71762111058713     -1.59543800586388
  O           1.80032667510737     -2.64627912914963     -0.23648752491827
  H           3.40614539051084     -5.73780804326229     -2.83644837569649
  H           4.20108874802016     -4.09014549823358     -2.91713021598824
  H           1.51803880306429     -4.77829225494232     -1.60596330998133
  H           1.48655052069209     -2.24143381458510     -2.24092145884658
  H           3.19858424996342     -2.21681162533274     -1.71529989193856
  F           3.46444203647645      0.04051223864938     -1.58188897231958
  F           1.38523551159855      0.06265764061120     -2.19556173338416
  H           2.20841874152060      1.50163264430822     -1.10161087995068
  Br         -0.38654127552861     -0.90001749986751      2.35041237895163
  Br          0.94813451456658     -3.72404055265358      2.09938373581173
  Br          2.66065788835266     -1.29005967549222      3.10646445371432
