19
Coordinates from ORCA-job NEB_reactant E -48.743627072160
  C           2.18298520041665     -0.46197100327454      0.22425212754631
  C           1.48238369787911     -0.82330448510622      1.31951702134801
  N           2.21830206889129     -1.10691891242027     -1.03691342947817
  H           2.80599105051702      0.41850681834029      0.25896629629055
  C           1.51823867140751      0.10049598679520      2.53197731131667
  C           3.07741502383309     -4.00781478945057     -0.15334606106408
  C           2.45808252776740     -3.55559322954900      0.92249729694000
  C           1.01577367583375     -3.16135859856590      0.93852009338057
  O           0.80813976189849     -1.92027460130243      1.61744096404931
  F           4.35393986305351     -4.38994828080160     -0.10827573914388
  H           2.64281504828759     -4.13162661203011     -1.13558666113619
  H           2.99253231744054     -3.46530596976904      1.85798324012328
  H           0.43346452153542     -3.86740808002831      1.53858880480336
  H           0.60919261130704     -3.11999281419220     -0.07867709420780
  O           3.21781973265901     -0.94864699390052     -1.70254069459241
  O           1.23995052867723     -1.73634180099050     -1.40041871512496
  Cl          2.93385826910966     -0.38985934212440      3.51145022920483
  Cl          1.68399065846087      1.80387170225630      2.09717358893085
  Cl          0.05192477102481     -0.09620899388620      3.50399142081373
