19
Coordinates from ORCA-job NEB_product E -48.742797060350
  C           2.49861536704522     -1.34817838376748      0.24616654688063
  C           1.22567330697590     -0.93303754706988      0.95751944575136
  N           2.53312369712792     -0.59519283136334     -1.07121347649439
  H           3.40246453093474     -1.07836342264942      0.79731423117189
  C           1.45364076123270     -0.11789952598110      2.23968061165599
  C           2.45110379873342     -2.86320766757910     -0.04827664594535
  C           2.21889277663707     -3.65479001824369      1.20415312645726
  C           1.04737955982599     -4.16551551662815      1.53036223696172
  O           0.13375689892163     -1.18778793754157      0.55257123338860
  F           3.66497186835676     -3.20641257222926     -0.59865728231556
  H           1.68247900432526     -3.05600851007224     -0.80828641279881
  H           3.09419619985707     -3.78155950808184      1.82443277013402
  H           0.91271969259895     -4.71982863601626      2.44219615963272
  H           0.17868058857849     -4.04088775197126      0.90561568282301
  O           3.32221809104596      0.30333945493380     -1.13195932168178
  O           1.76332223171017     -0.94929978760554     -1.91428976819926
  Cl          2.47606263616760     -1.05559090721802      3.34985945532128
  Cl          2.29154441614656      1.38675279470934      1.76640497908081
  Cl         -0.08214542622141      0.25556827437500      3.01770642817587
