25
Coordinates from ORCA-job NEB E -40.119818503220
  C          -0.52875085004102      0.96477592808570     -0.59212907647204
  C          -1.57504383653949      0.77857685491008      0.33324644626855
  N          -0.81606807473785      0.90459507355119     -1.94244063596728
  H           0.22731260268048      1.69806260695917     -0.33846467102440
  C          -1.39741170494894      1.39557097106403      1.71546177447360
  C           0.46471743155034     -0.82259895157953     -0.21056751639559
  C          -0.36928791756231     -1.57489737931379      0.61475173905085
  C          -1.66849086492916     -1.85767369294080      0.21841062113727
  O          -2.43087877692664     -0.14977212804250      0.19641324607838
  C           1.84231678883306     -0.43899923936208      0.26549120766082
  H           0.41154207663803     -1.06209851396084     -1.26760668620333
  H          -0.15270091812067     -1.57429918482832      1.67594414606404
  H          -2.33972431491271     -2.35122823779081      0.90209728302835
  H          -1.87607738229853     -2.03772866855747     -0.82595881571614
  H          -1.58092460957815      0.28307556737407     -2.16563812291683
  H          -0.02793147056136      0.82188385805587     -2.56631505911554
  F          -0.26424649876387      0.96626819904838      2.34578984550950
  F          -1.25796507705959      2.74370807820863      1.62417542271799
  H          -2.25168169682559      1.17547886212096      2.37037308860889
  C           2.70428139933545      0.19613764490672     -0.82011642721061
  H           2.33841028309936     -1.34944415313199      0.61610684472517
  H           1.76476699020872      0.22946514566902      1.12395855431277
  H           2.79444746557944     -0.47035455864776     -1.67631381508113
  H           3.70284070967199      0.39069353540423     -0.43660611206776
  H           2.28654824620901      1.14080238279779     -1.16006328146552
