25
Coordinates from ORCA-job NEB_product E -40.152832577190
  C           2.76151395518790     -0.84368934737022      0.32387283563101
  C           2.29447031534795     -0.53532010670194      1.73770636796548
  N           1.53542266715798     -0.98179483719722     -0.45094099539473
  H           3.30572310331161      0.01309235131158     -0.08326713825796
  C           2.41978017844424      0.94862074523317      2.14494957226685
  C           3.69226288359733     -2.09196619198939      0.28271230195748
  C           2.93519754197627     -3.32541425525315      0.67707975587764
  C           2.46973418582347     -4.20961928054458     -0.18671661233978
  O           1.76689620403155     -1.31662847113582      2.47470481886026
  C           4.92863758957310     -1.91533022911286      1.17440570730691
  H           4.01881335193987     -2.19648461652626     -0.75988307429691
  H           2.76198010178172     -3.44920101352382      1.73622497609699
  H           1.92090935599521     -5.08024703130040      0.12888312815503
  H           2.62831869281628     -4.10884437085142     -1.24950951259219
  H           0.99870962996921     -1.77269383154465     -0.10630213856685
  H           1.76055894415414     -1.16223047020925     -1.42338101017460
  F           2.43902246623263      1.09036849927541      3.48423661485463
  F           3.55365595397743      1.52186470062252      1.67627821529628
  H           1.56134238683600      1.51469820274958      1.74306249807395
  C           5.90134609155742     -0.85802438490124      0.66492757742382
  H           5.44556817591966     -2.87737920638433      1.21842621829659
  H           4.61213210862213     -1.66704554049834      2.19002003915316
  H           6.18956287786374     -1.06851306633634     -0.36305816502148
  H           6.80003547085409     -0.85915479579005      1.27683048884390
  H           5.46990576702906      0.13783654797901      0.70863753058452
