21
Coordinates from ORCA-job NEB_reactant E -32.484547123800
  C           1.69013561057674     -0.15930570815125     -0.00878386166673
  C           1.80348331488638      0.23690341970932      1.25559074384514
  O           1.12832357428261     -1.36178691212107     -0.33842316577863
  H           2.04747263012700      0.46929101481741     -0.81077973076562
  I           2.79753582365681      2.09307713960863      1.59902046688394
  C           4.44420681776865     -1.76014922270845      1.91549563696079
  C           3.53661965060686     -1.45293574446223      2.82814016311233
  C           2.06623837758475     -1.65403491968134      2.62982001204137
  O           1.41393182090705     -0.39890496524857      2.36663994277047
  C           5.90522898760805     -1.47594000307652      2.03676353672743
  H           4.13744142604774     -2.23912643831260      0.99290101850383
  H           3.82247749083102     -0.95477485350840      3.74469606560950
  H           1.58180170305937     -2.01854619466604      3.53793362677662
  H           1.86903295291082     -2.34215005781083      1.80096452348147
  H           0.96679874900831     -1.40088917245096     -1.28588127674479
  C           6.35251390125493     -0.49338823282051      0.95333293826793
  H           6.46424921968424     -2.40935915698586      1.92670851553258
  H           6.12242843009144     -1.05982069375457      3.02158171427910
  H           6.14744775790852     -0.89587289842723     -0.03647865221972
  H           7.41953067575082     -0.30170504251455      1.03341174829664
  H           5.82330108544785      0.45081864256564      1.05884603408637
