21
Coordinates from ORCA-job NEB_product E -32.503796131870
  C           2.90068170462091     -0.44876608228173      0.56722721013363
  C           2.40641454320584      0.69803907842033      1.41436492750768
  O           1.79761887404293     -1.14480208129905      0.06554648476132
  H           3.44737361128261     -0.08008162795103     -0.30324981574930
  I           3.57177327504016      2.52326245110780      1.21784472424187
  C           3.81284679924078     -1.39948702236678      1.40459785731719
  C           3.07627631413442     -1.81476776126937      2.64606604582323
  C           2.33011718259474     -2.90177950769879      2.73007954399723
  O           1.47095723138675      0.68530472134540      2.13476970271025
  C           5.18924344004502     -0.82508294907523      1.75139535294752
  H           3.94858957563863     -2.27603616241802      0.75989736580688
  H           3.16455971019851     -1.14493121835284      3.49136877328202
  H           1.79958346773349     -3.15876464642065      3.63070992629281
  H           2.23201624720999     -3.59059309038503      1.90559379204577
  H           1.31099155337916     -1.53895159442825      0.80377776696088
  C           6.05467347184740     -0.52713524015107      0.53310170902207
  H           5.69708919424346     -1.57050854499256      2.36895324937133
  H           5.08196448427325      0.07618261782139      2.35749415062863
  H           6.11703263401691     -1.39853622856071     -0.11482799805006
  H           7.05989095572114     -0.26513358297727      0.85262854762040
  H           5.66340573014388      0.30766847193348     -0.04223931667136
