34
Coordinates from ORCA-job TS E -42.469955270080
  C          -0.70473608703755     -0.36162239497444     -0.74674812470549
  C           0.73416482211242     -2.63561916530565      0.24277336307712
  C          -0.60247014996810     -2.66396239333348      0.00895396104803
  C          -1.31841859286721     -1.58192537117870     -0.52447312410169
  C          -0.12074048157930      0.18579407608315      1.20042406145527
  C           0.83907060224061     -0.65675570096270      1.71482680842541
  H          -1.17640562137773     -3.50270805884229      0.38340527578052
  H          -2.39648738285735     -1.64598361962462     -0.53850253406306
  C          -1.44950245115008      0.81298972496822     -1.20543618525222
  H           1.21219978761169     -3.45144933068825      0.76025248802966
  H           0.32740930429517     -0.37172333720593     -1.06841320167386
  H           1.38813095699057     -1.97526249524848     -0.29452934237554
  H          -1.11227844820596      0.10344147013262      1.60854566151752
  H           0.54310883834525     -1.43014025596923      2.40560738183947
  H           0.14765166402260      1.17381876750000      0.86876207891796
  N           2.19523549532446     -0.42435682064509      1.69410476195115
  C          -2.76072900675550      1.06324072588119     -0.80208837360901
  C          -3.43501643897331      2.18587054842857     -1.24223555325419
  C          -2.81300630607929      3.08847655684613     -2.08908408292530
  C          -1.50654472214299      2.86109456158142     -2.48826767474951
  C          -0.83181599582463      1.73952029351536     -2.04583191482220
  H          -3.25250644751082      0.37604498613306     -0.12990276309101
  H          -4.45133707664223      2.36265452901019     -0.91976339895265
  H          -3.34130204900612      3.96619959260938     -2.43153750945252
  H          -1.01212119278867      3.56289692992329     -3.14497186355795
  H           0.18842172693157      1.56857738490063     -2.36264427513443
  C           3.07543654616224     -1.44015149098100      2.21196041660145
  C           2.79769198131530      0.38538796579969      0.66585386679571
  H           2.58804931611275     -1.97500537147413      3.02392384254527
  H           3.97870520215144     -0.96578758377478      2.60052947426942
  H           3.37177084072022     -2.16433676439277      1.44201486481122
  H           2.12898044209145      1.19062450171716      0.37700033816525
  H           3.04941166300347     -0.20205502885143     -0.22781206135218
  H           3.71997926133561      0.82221256842291      1.05330333784235
