15
Coordinates from ORCA-job NEB E -26.826332425970
  C           0.69779017943937      0.69070676718846     -0.47836732979118
  C           0.03358261798403      0.99298681338518      0.69271336746618
  Br          2.84246905934836     -0.58072546134564      0.07739126440330
  H           1.29033770003886      1.45033849053319     -0.95955503582249
  C           0.07612563063598      2.28184716238396      1.25661507328112
  C          -0.02029752660606     -0.31568914701728     -1.35373236445398
  C          -0.93255946562840     -1.16956961016706     -0.59683115618624
  C          -0.63750190866174     -1.25033038525806      0.85322597471666
  O          -0.78778891532447      0.10427505854019      1.28377013167169
  H          -0.53179369638574      0.21062915211662     -2.16731118321272
  H           0.74798281854575     -0.93953433462420     -1.82983630281064
  H          -1.92023740831055     -1.38533640685215     -0.96661833947970
  H           0.37897901366026     -1.59941433456225      1.06194640967235
  H          -1.36350320846868     -1.82819099046672      1.42273187907422
  N           0.12641510973301      3.33800722614577      1.70385761147142
