15
Coordinates from ORCA-job NEB_reactant E -26.867021124510
  C           2.02678058061863      0.05467145088271      0.13084347339161
  C           1.32470499220346     -1.04026064149777      0.47042878309765
  Br          2.66057346313700      0.30097127162830     -1.61604237120016
  H           2.25991136959091      0.83750857368492      0.83023846823633
  C           0.87734596645311     -1.15150980208438      1.81425315196895
  C           0.27067440077561     -5.36480564662511     -1.07084686766213
  C           0.13540443797923     -4.05571671716359     -1.14772064442046
  C           0.29897773708473     -3.12705883641260      0.01493199769191
  O           1.04977778168722     -2.00572520504496     -0.42989089902369
  H           0.12700250135858     -5.99820260676343     -1.92832144904176
  H           0.51836301198935     -5.85843334326998     -0.14541221162438
  H          -0.10611320421314     -3.56405934906551     -2.07898122041584
  H           0.81005178262954     -3.62578654598880      0.84865825377294
  H          -0.68931495038067     -2.79142420343625      0.36754441859216
  N           0.51496012908643     -1.24326839884355      2.89821711663688
