15
Coordinates from ORCA-job NEB_product E -26.871052947870
  C           1.27317675589942     -1.96458703580196      0.35151025508400
  C           2.45115714003058     -2.16957495729718      1.28553715207604
  Br          1.99320241984032     -0.69292542518699     -0.98549359286886
  H           0.46044768753348     -1.42623768151291      0.84592109933320
  C           2.73619627420633     -0.98056675975401      2.07201011995100
  C           0.79868533270907     -3.25663653275141     -0.29576503065119
  C          -0.36326684391145     -3.02500249506613     -1.21131918977764
  C          -1.57149412428851     -3.51233838381635     -1.00641713831730
  O           3.09234696491827     -3.18223664899335      1.35594350265118
  H           1.63138608030458     -3.70322546843505     -0.84719816721132
  H           0.51680884681425     -3.94439214751434      0.50661221070083
  H          -0.15600845176876     -2.40772134383534     -2.07529426533916
  H          -1.79954695065255     -4.13183201757086     -0.15403052555718
  H          -2.38207986604462     -3.32290385644275     -1.68811916940190
  N           2.92698873440960     -0.03761924602136      2.69080273932832
