19
Coordinates from ORCA-job NEB_product E -44.419879967270
  C           2.51220091056816     -0.77908143691020      1.90423877452258
  C           1.71236810507786      0.08166829390494      2.82228356044600
  Br          1.23520012028128     -1.01926013466207      0.41894794493722
  H           3.36508626975798     -0.24327688204800      1.47932896402580
  N           1.66096140572253      1.56432950973883      2.36730919228874
  C           2.90368301288800     -2.13409707712427      2.49330087325075
  C           3.64405116188628     -2.95072927346202      1.46763493826671
  C           3.18783974988600     -4.08561405140975      0.97628845789545
  O           1.09864453993718     -0.21903644966988      3.78996642266039
  C           3.79280084156225     -1.90382725774895      3.72697122765975
  H           2.00764810978684     -2.66699209540074      2.82863063320031
  H           4.59370664003909     -2.53924561490233      1.15486889648105
  H           2.24445664151085     -4.50423843109555      1.28565695251137
  H           3.74124445249364     -4.64132434529525      0.24067488840608
  O           0.90531273895682      2.25925246824809      2.98163131461687
  O           2.39532004540478      1.87730197221893      1.46428445011818
  F           4.29988535577443     -3.07331946225315      4.16233437486969
  F           4.84915990985027     -1.11559689903458      3.40806531578752
  H           3.26232998861574     -1.43161283309405      4.56788281805554
