19
Coordinates from ORCA-job NEB_reactant E -44.419455458050
  C           2.32618709597677     -0.06903710342171      0.70025284511176
  C           1.44336468283841     -0.51430269335226      1.59966469927374
  Br          3.44434103667511     -1.06218977671118     -0.42735194291193
  H           2.42665385643307      0.99891771065000      0.57280129631297
  N           0.70277739910673      0.52560469846179      2.34572057834038
  C           3.57684753374248     -2.09333985035956      3.28133255142717
  C           3.17927203776338     -2.87447630893119      2.29061866886438
  C           1.78696124492962     -2.88304344744730      1.73735309977679
  O           1.04650606270545     -1.71139089481494      2.03625825295660
  C           4.97845502370857     -2.07124835740681      3.80906477279246
  H           2.91819797924505     -1.39209473882030      3.77380820958142
  H           3.86369417128788     -3.56847086009836      1.82472246209861
  H           1.20869431710012     -3.68635964550656      2.20657320702149
  H           1.80707370163635     -3.06558197042876      0.65774526503468
  O           0.08470767185298      0.15429252538430      3.30849743726793
  O           0.78037073695294      1.66225570463861      1.94266132331665
  F           5.78135940145962     -2.95290863794712      3.17327166216591
  F           5.53029513028217     -0.84251979733117      3.61542223449619
  H           5.02974091630330     -2.28400655655747      4.89028337707280
