23
Coordinates from ORCA-job NEB E -35.760253438480
  C           0.11182705784957     -0.07930784827493      0.67213961471085
  C          -1.10716536378966     -0.70336566247474      0.35161011670690
  C           0.13142879766544      1.40850099993175      0.98458810255402
  H           0.72270491252796     -0.63743080027388      1.37750120255119
  C          -1.21885568968299     -2.19317514069917      0.62090923333555
  C           1.00461905659485     -0.19599510460710     -1.01852364957030
  C           0.07348137628984     -0.46984967525940     -2.02759818803039
  C          -1.13968552123338      0.27554180445542     -1.93758523981028
  O          -1.85895345731880     -0.23001513822206     -0.59424523810864
  I           2.63519995588436     -1.56778961141578     -0.82032124657479
  H           1.39480040701046      0.80955391033829     -0.97045225179935
  H          -0.00859014628012     -1.48175686488644     -2.40324558590027
  H          -1.89745610226002      0.05566440544532     -2.68085610179943
  H          -1.03251431010682      1.34545434597527     -1.77075468726524
  C           1.49128798530485      1.88445056758144      1.48311454848002
  H          -0.60387245333231      1.58011526342576      1.77591436278418
  H          -0.18555686933493      2.00095529509641      0.12485304963484
  H           1.77723378400643      1.34000793052665      2.38021437045141
  H           1.44820222169921      2.94346213306522      1.72540927634369
  H           2.27283625300223      1.74201322667594      0.73996933854644
  F          -2.49645218057269     -2.63803234317713      0.43680571384769
  H          -0.92734072817907     -2.44355362764654      1.64544196918084
  H          -0.58717898574443     -2.74544806558028     -0.09488871026894
