23
Coordinates from ORCA-job NEB_product E -35.815848429730
  C           2.41610508460907     -0.85236510077594     -1.18149077932553
  C           1.18095814571192     -1.74791989112574     -1.13506408632470
  C           1.97850787654885      0.55210693955213     -0.72246096855729
  H           3.16834906898522     -1.23829206312011     -0.48459277213653
  C           1.29122515838977     -2.86861386748944     -0.11456333707518
  C           3.03160292599412     -0.80351698681235     -2.58153863604620
  C           2.15566498242300     -0.23335254869820     -3.63316659179142
  C           2.55682250940739      0.70731990326292     -4.47072641667971
  O           0.20686346322717     -1.57039349912861     -1.81068983527271
  I           3.60563685506752     -2.84632160714424     -3.17431434509180
  H           3.98649018004912     -0.27861079484375     -2.54562593105784
  H           1.15587783314923     -0.63954416734524     -3.68848240217801
  H           1.90327747430016      1.10556387781303     -5.22666663015914
  H           3.55433811063152      1.11712468058037     -4.43672053180300
  C           3.14280231202667      1.52152336943815     -0.56402890276833
  H           1.46755296840055      0.44844980683473      0.23817183825802
  H           1.25860569597601      0.94802728830105     -1.44075239644466
  H           3.90932074281575      1.10255263156017      0.08477629567526
  H           2.78922977442687      2.44810587649854     -0.11929802665882
  H           3.58988056724981      1.76096277887843     -1.52495093705716
  F           0.11606487577820     -3.54528366894999      0.02052876726017
  H           1.55285041003722     -2.46163800548236      0.86963614767099
  H           2.05407298479486     -3.59038495180353     -0.43247952243641
