20
Coordinates from ORCA-job NEB E -41.974569510550
  C           0.95714709694727      0.36719149257043     -0.00016687586917
  C           0.13310362228273      0.02023557487835      1.08720690875321
  C           0.98830145714423      1.81120075319763     -0.46733246708672
  H           1.97090217660667     -0.02597449258552      0.01511840367773
  C           0.49255086692627     -1.17135075453167      1.94771791676359
  C           0.08128710379635     -0.60561644129733     -1.38734406429301
  C          -1.24028724611834     -0.15368964552433     -1.32710952243909
  C          -1.95459571727875     -0.34391107163618     -0.11203856182435
  O          -1.11667001656186      0.37902794526555      1.07756437977703
  F           0.77597074911414     -0.34240986866806     -2.50670223207588
  H           0.34244351349360     -1.60305511692256     -1.03410159388604
  H          -1.52367438437578      0.65174360966974     -1.98621988566982
  H          -1.98149237681623     -1.35908713644348      0.27928833991636
  H          -2.91633061434354      0.14923136846767     -0.05024483415250
  F           1.77297682357899      1.95598727737852     -1.55801903616984
  F          -0.21586959538545      2.32152389157025     -0.79295577017823
  H           1.41295402431591      2.45359136150042      0.32450263197305
  F           1.82701142712578     -1.46059480078295      1.88219164412847
  H          -0.04995678071943     -2.06918223928438      1.61266454427410
  H           0.24422787026742     -0.97486170682210      2.99598007438110
