20
Coordinates from ORCA-job NEB_reactant E -42.004312280050
  C           1.82618889403578     -0.02129960408743      0.05307691236676
  C           1.25232544388462     -1.15804697923720     -0.36891526557693
  C           2.07325528045277      1.13447668306366     -0.86526887675728
  H           2.15592213408539      0.08594273266194      1.06960908238042
  C           1.05758399708520     -2.30996552888518      0.58730138237127
  C          -0.04093187972431     -2.99073310177237     -4.48720525814875
  C          -0.24326274068489     -2.11080936306429     -3.52641581342778
  C           0.09814527753238     -2.36786219322719     -2.09454957634394
  O           0.88845598293981     -1.27339928482350     -1.65453307905283
  F          -0.37847922212158     -2.73933123217254     -5.75744110771028
  H           0.37599279374538     -3.98170786501286     -4.37099888816671
  H          -0.65479825686471     -1.13822754324769     -3.74830617320961
  H           0.64766833391559     -3.31287218312167     -1.99605829983376
  H          -0.82583653826802     -2.42665327217761     -1.50415923439141
  F           3.00060995408952      0.83028305129217     -1.81596873565683
  F           0.95623539870111      1.49580268788551     -1.54632559530661
  H           2.43567550220713      2.02653571159074     -0.33143648567430
  F          -0.27732195212433     -2.55244471879433      0.81866284036752
  H           1.51022985463021     -2.08302837824442      1.55484334347182
  H           1.47894174248295     -3.23735961862574      0.18238882829922
