23
Coordinates from ORCA-job NEB_product E -28.284893529550
  C           1.88943275622091      0.34823391144188     -2.12253269746746
  C           0.53724984226793     -0.29634899519086     -2.28878686585310
  C           1.86240296088952      1.01844040554048     -0.73022603065371
  H           2.64320939142754     -0.44620674207019     -2.11293411082555
  H           0.40383687297490     -1.18625853960458     -1.63763653184770
  C           2.18335985370132      1.33362968790679     -3.26847431436084
  C           3.43964027428794      2.11130648432551     -3.02153500065972
  C           3.48878831756786      3.41800854422894     -2.84310185742356
  O          -0.35724203600523      0.09036163716425     -2.98516067499347
  C           2.31879832048086      0.57854914156678     -4.59422226392229
  H           1.33692387867411      2.02338923731940     -3.34126077455857
  H           4.35105796588500      1.52604283006904     -3.02962582250618
  H           2.59735783000726      4.02391325437237     -2.84494295763796
  H           4.41758686586537      3.94107764160380     -2.68814031821577
  C           3.20942075908726      0.98167401509977     -0.01957022848234
  H           1.12444284530991      0.51064405642100     -0.10194234789437
  H           1.53505197383714      2.05217012166298     -0.84778390789404
  H           3.53976408188503     -0.04472281776007      0.12532715924165
  H           3.12589986801377      1.45370575490640      0.95671222760777
  H           3.96224580223893      1.51357990251061     -0.59378664640308
  H           1.39582420261916      0.05804059071304     -4.83361083371652
  H           3.12779641632787     -0.14819699241258     -4.54046550381494
  H           2.53765095643565      1.27726687018523     -5.39839969771827
