87
Coordinates from ORCA-job TSA2R_3R E -119.419359213910
  Ru         -0.17414148415669      0.63492453441179     -0.17810730589680
  H           0.46822437388138     -1.01327778280472     -0.32388073316959
  N           1.05000574429164      0.64777783933906      1.52489210697018
  C           2.38428227760662      0.50438891687640      1.33289043074835
  C           0.54394830120148      0.64427299634810      2.76127961423012
  C           3.22863525638455      0.29484772866381      2.44006908417047
  C           1.33401586279510      0.44517189429659      3.88140068382109
  C           2.70314140778071      0.25642945433929      3.70796396053573
  H           4.28511447897487      0.15801555409250      2.26983585290693
  H           0.89198888028544      0.44341790027190      4.86514780293034
  H           3.34031364357574      0.08975113913203      4.56361727629850
  P           1.79624852126762      1.40758253932227     -1.14601272590182
  C           2.33939721625899      0.89988350199798     -2.89117745212743
  C           2.21844564578247      3.25507155696100     -0.87130623025785
  P          -1.76124398158624      0.13368815939568      1.40102521633705
  C          -3.36420284185048      1.00373637935632      1.44820480460649
  C          -2.32266660360794     -1.48830135061237      2.03074370753847
  C           2.88325854059985      0.49143387842275     -0.02170533447381
  H           2.69504539502114     -0.80250359434106     -0.38875492066766
  H           3.95477837999467      0.65642405805379     -0.11524272371109
  C          -0.92920915660859      0.89830270332384      2.87216385742750
  H          -1.34499087328551      0.57350898497122      3.82899629229977
  H          -1.10970349450203      1.97633939790659      2.75794432838232
  C          -1.23795332828351      0.59027191341862     -1.68073409364489
  O          -1.93581798856654      0.60602842902303     -2.60107324767911
  H          -0.61802510167581      2.07623386058268      0.09341832845947
  C           3.84382065291118      0.65474466685586     -2.99465326251972
  C           1.62222840174435     -0.41263677682813     -3.21665236118367
  C           1.87128984288627      1.93812198416099     -3.91103750044155
  H           4.12943491365805     -0.19643269793128     -2.38163712295990
  H           4.09311732232176      0.41971296515186     -4.02907815410333
  H           4.42948251162069      1.51883688460714     -2.69715366189110
  H           0.54018946032941     -0.30185507938149     -3.13463915270257
  H           1.85175683086059     -0.71233367294631     -4.23851644480418
  H           1.95166104476523     -1.21123744122288     -2.55699133069012
  H           0.82366593238509      2.18393065636716     -3.73787930629069
  H           2.46540731432399      2.84697688878056     -3.87824107462600
  H           1.95916723038897      1.52451954709677     -4.91548745395123
  C           2.11664286296810      3.50624448489664      0.63618723385575
  C           3.62702908410720      3.64362621628586     -1.31465466226428
  C           1.16296040886021      4.12240881899726     -1.55957938410810
  H           2.88176741374980      2.96151544152351      1.18700625863391
  H           2.25075120284000      4.56814887535630      0.84070563836124
  H           1.13398129378154      3.21324921865472      1.00576616834460
  H           3.74429662635764      3.60313143661986     -2.39348239718990
  H           3.83093321274073      4.66724135753266     -0.99953207395091
  H           4.37191321119338      2.99859997272632     -0.85140451958079
  H           1.33587495145964      4.21085871114318     -2.62654758462594
  H           0.17295436144748      3.69242917220698     -1.39875215192129
  H           1.17364389401542      5.12601857428474     -1.13599585348724
  C          -1.74610787042247     -2.14138473680515      3.11421433397751
  C          -2.21031225698659     -3.38807313257905      3.49703898528782
  C          -3.23648469050041     -3.99692111637998      2.79469007027437
  C          -3.80332006341831     -3.35805104420318      1.70272584340768
  C          -3.34799113193316     -2.11126761863364      1.32192839813445
  H          -0.92708046014050     -1.68720778898993      3.65466405091183
  H          -1.76282793718488     -3.88833702018765      4.34362906237889
  H          -3.59142911711478     -4.97146718357337      3.09497714582713
  H          -4.59891557628172     -3.83440863574934      1.14932956181234
  H          -3.78805139059321     -1.59973939377871      0.47428667559659
  C          -4.22398147844379      0.83712550696101      2.53113803872330
  C          -5.42492017097519      1.51928687159074      2.57138364795834
  C          -5.77892706607344      2.36593021087144      1.53213892450306
  C          -4.92746330466273      2.53254449628380      0.45313192583432
  C          -3.72118960206267      1.85470192040047      0.41057982372235
  H          -3.95378749268744      0.16689769347050      3.33639363159963
  H          -6.08897718455666      1.38956738019227      3.41364120625381
  H          -6.72052036639714      2.89391350216170      1.56530227712868
  H          -5.20303828796626      3.19013995969529     -0.35783964049029
  H          -3.04124185357707      1.98089144951354     -0.42270493247103
  C           1.01136555763590     -2.09561798508104     -0.34286131862422
  O           2.30168807192100     -1.97492268338423     -0.69373786163896
  C           0.19583894258465     -2.91800290628111     -1.32095106653283
  C          -1.17154788656411     -2.73323716744812     -1.46072101103619
  C          -1.90225437167274     -3.53069613858988     -2.32055756007341
  C          -1.26943505327903     -4.52107110309861     -3.05383770412485
  C           0.09571328643450     -4.70688829254758     -2.92304169835416
  C           0.82488026635767     -3.91120122254648     -2.05817427179001
  C           0.84231108570485     -2.71097630154775      1.05932607907687
  H          -1.66748491722088     -1.94675562299696     -0.89916791464907
  H          -2.96628282935975     -3.37419729550595     -2.42530174698363
  H          -1.83978220551318     -5.14135837922377     -3.73011350455004
  H           0.59531394296333     -5.47397454199376     -3.49705039093170
  H           1.89158505501707     -4.03780782094825     -1.94836219502006
  H           1.36339788538438     -3.66726833611850      1.06238977506010
  H          -0.20583430275454     -2.88116660602020      1.28958191276115
  H           1.29423572104370     -2.07823971461592      1.82258302100445
