87
Coordinates from ORCA-job TSA2S_3S E -119.414032193250
  Ru         -0.25017466946306      0.53285648129832     -0.70766513459480
  H           0.17268202934126     -1.16819386974534     -0.62299518124491
  N           0.94369184758729      0.67105001904563      1.01369497778794
  C           2.27067206149948      0.44546470177453      0.86378099607504
  C           0.42519771116565      0.85217853946640      2.23009131287679
  C           3.09989328455491      0.37817550843374      1.99992312021669
  C           1.19591740536558      0.77966549935382      3.37880552929217
  C           2.56027213423541      0.53528268806188      3.25359582820972
  H           4.15469087497097      0.19277366340186      1.86546103242794
  H           0.74301871004986      0.92406184660211      4.34665020291148
  H           3.18532326786866      0.47994993204904      4.13234140579409
  P           1.78842378557887      1.13145405828538     -1.69118739087210
  C           2.40698616437460      0.50304185632299     -3.37082437776310
  C           2.29382406580077      2.97526076921854     -1.51835003373792
  P          -1.86747303802965      0.28728128880495      0.88574916279490
  C          -3.43692152530955      1.21537592357650      0.79013913806469
  C          -2.53238752425991     -1.22635745766304      1.65992894253816
  C           2.76812994982851      0.21603382410288     -0.47318861687131
  H           2.42235733199666     -1.10106822996703     -0.72575850505974
  H           3.85131871152904      0.26118541725573     -0.56689885828760
  C          -1.03456296591548      1.18690642744821      2.27490353492928
  H          -1.48408529699396      1.00885538135749      3.25400599127324
  H          -1.15935496943003      2.24965758340912      2.02213244577896
  C          -1.29072104145012      0.31863161247441     -2.21079851906193
  O          -1.97261368534818      0.17862664815260     -3.13339548654138
  H          -0.62276582164603      2.01855139425781     -0.61952437376324
  C           3.90021314801936      0.17930621676309     -3.38119211303131
  C           1.64324697079023     -0.79290791913304     -3.64054576668257
  C           2.04255905363143      1.48414382914822     -4.48489760991050
  H           4.10998520454125     -0.65624089400426     -2.71810442195872
  H           4.18873938924917     -0.11595878376885     -4.38975585114575
  H           4.51607598783919      1.02453108296597     -3.09198535505664
  H           0.56915708522076     -0.60245631815380     -3.65723654368506
  H           1.93171842775163     -1.19890014581984     -4.60976928810353
  H           1.87665746026156     -1.53688606206055     -2.88146695991460
  H           1.00220033619486      1.79244926031584     -4.38453468326788
  H           2.68074276368468      2.36301534806727     -4.48909523941256
  H           2.15713450663054      0.99193128129310     -5.45067207453134
  C           2.13587933049754      3.35721615688165     -0.04375696548647
  C           3.74135779221838      3.25867874844779     -1.91387784230362
  C           1.31966976554552      3.83673498688269     -2.32469474145049
  H           2.84539718258414      2.82555261713200      0.58797463520261
  H           2.31830282300428      4.42487120884433      0.07747366048976
  H           1.12283555620592      3.14827430247535      0.29959425265840
  H           3.90999422602703      3.13225447692619     -2.97889548955019
  H           3.98426236402724      4.29152261973781     -1.66304178963879
  H           4.42596163067199      2.61373980222184     -1.36510185786874
  H           1.55539857771641      3.84371650861430     -3.38299865209472
  H           0.30341664878289      3.46170220208071     -2.19259458175221
  H           1.35318950143252      4.86609695640218     -1.96980656953796
  C          -2.25508195750841     -1.66262405392993      2.94773092389459
  C          -2.92515242056980     -2.76067488929266      3.45933238324474
  C          -3.85232859398990     -3.43826465816900      2.68685970581766
  C          -4.09794266894335     -3.03391887267404      1.38352207908385
  C          -3.44116241634510     -1.93231622357966      0.87375635714051
  H          -1.51408275745109     -1.16188762271532      3.55380668680957
  H          -2.72039861566715     -3.08748661163363      4.46838013102720
  H          -4.37798461412600     -4.28835338114969      3.09628812588377
  H          -4.80686738365957     -3.57357573939354      0.77259766879481
  H          -3.62946382245786     -1.59090638781341     -0.13843460521128
  C          -4.33377855131508      1.20083078974598      1.85536899809539
  C          -5.50902683060295      1.92365931214617      1.77930855880933
  C          -5.80116525941383      2.65903956488548      0.64101092106342
  C          -4.91321065669691      2.67348235832764     -0.42118400021908
  C          -3.73252259112218      1.95469945265382     -0.34761529808673
  H          -4.11285941495655      0.61692234764626      2.73888118221529
  H          -6.20174899451411      1.91194509419995      2.60828669874541
  H          -6.72320817054577      3.21851683745576      0.58364525213996
  H          -5.14046562610975      3.24410077156840     -1.30934417569508
  H          -3.02433666380571      1.96235847493758     -1.16699606209235
  C           0.63221127359446     -2.30164246322364     -0.62334868586751
  O           1.93720076554937     -2.25582317010544     -0.94699933378411
  C           0.41816056375728     -2.87774155108270      0.77305438283590
  C          -0.58809592314734     -3.78972892907289      1.07331194826182
  C          -0.65074552056264     -4.38761096661105      2.31967219242131
  C           0.26508068703600     -4.06381447488570      3.30432224637139
  C           1.26560757046776     -3.15159394155273      3.02132341208844
  C           1.35074076355011     -2.58675488432156      1.76348818336299
  C          -0.20911211266524     -3.04281957168878     -1.67335387634159
  H          -1.32888616372349     -4.06114635013629      0.33883553639803
  H          -1.42133778168713     -5.11876793040039      2.51762213379486
  H           0.20841541797343     -4.52951617560212      4.27770568949923
  H           1.99923511605848     -2.89468862118447      3.77268227182733
  H           2.17846175682212     -1.93521607620346      1.53274834756955
  H           0.03971854842224     -4.10205125039448     -1.64048688490848
  H           0.02355696593901     -2.67049249807231     -2.66589217794809
  H          -1.27285844801345     -2.90522669771673     -1.49152221218224
