20
Coordinates from ORCA-job NEB E -41.434290437020
  C           0.07496528004875      0.75029390124141     -0.95084548305861
  C           0.97407312303004      0.62527339956492      0.05948590891296
  C           0.40957860831581      0.52549348435937     -2.35306406432585
  H          -0.95049020130089      0.99061725057277     -0.74141356495813
  N           2.28007005316496      0.27139196551580     -0.12231108840131
  C          -1.29734446103499     -1.39689673475677      1.15885021390277
  C          -1.59414788340439     -0.22325559957867      1.61799341980576
  C          -0.68743935628121      0.91266322456099      1.79485401831433
  O           0.68968815636147      0.75908331265581      1.36300864040029
  O          -2.10311279223119     -2.49099770776799      0.92118161826832
  H          -0.20418102636464     -1.67262711026870      0.21703829011393
  H          -0.18804596328297     -1.89282443208453      1.28647560755829
  H          -0.59211561652904      1.12095917287445      2.86449746172686
  H          -1.11777092997083      1.80282669295707      1.32254211354414
  Cl          1.01116725262498     -1.16391064627498     -2.64927659556575
  Cl         -0.98903197637151      0.77921625839005     -3.39775283773646
  Cl          1.73825141966808      1.61312382379382     -2.95994549011178
  H           2.87324361590989      0.41810986423120      0.67875249449294
  H           2.69159957430908      0.46757468538332     -1.02050351997226
  H          -3.01895687666139     -2.19611480536934      0.91043285708958
