20
Coordinates from ORCA-job NEB_product E -41.600646980300
  C           1.42224440342688     -1.09760983617357      1.28254949360024
  C           2.88988074226804     -1.16259000192692      1.77567354402151
  C           1.33515990711333     -1.02856477025149     -0.23602471558161
  H           1.02643433265113     -0.14904064273517      1.66204866936873
  N           3.59919553037382     -2.19757453728670      1.30348301639070
  C           0.60419976277819     -2.22835017412860      1.95811816532627
  C          -0.83959289539701     -2.20909013721367      1.53670312725986
  C          -1.79048015339670     -1.58981107590984      2.20957622925524
  O           3.32545874505865     -0.31974322244973      2.52212759057208
  O           1.20988358006520     -3.47656078837353      1.68585243423803
  H           0.66691628358788     -2.02415162580565      3.04086686903846
  H          -1.05793995515107     -2.76477394967711      0.63524881486132
  H          -1.57893129251589     -1.03708281410540      3.11012795912596
  H          -2.81420330203008     -1.59817745671799      1.87956975437100
  Cl          1.51792487070580     -2.58516779241176     -1.05323705174654
  Cl         -0.22881266389119     -0.33318342914816     -0.74786134881813
  Cl          2.61594372009021      0.06289163193073     -0.84284531477550
  H           4.53466880430910     -2.32451500983935      1.65487198802265
  H           3.13833035631181     -2.96940632985589      0.84977973157591
  H           0.59061922364190     -4.17539803792020      1.92107104389382
