20
Coordinates from ORCA-job NEB_reactant E -41.590575733550
  C           1.33362113715502     -0.53290199779659      0.03639298602834
  C           1.98791098969859     -1.53512143394451      0.67414021908289
  C           1.94460002695636      0.27203074548224     -1.01980147323005
  H           0.32195496594155     -0.28191150227629      0.29229951486664
  N           3.25879277136145     -1.92550409691076      0.38583736752127
  C          -0.61522636507069     -2.97585866665567      4.21559347920271
  C          -0.26066326943277     -3.23416474901346      2.96382195987810
  C           0.07599663955872     -2.17271771682584      1.96814255182559
  O           1.45552031191681     -2.30939043251574      1.63908872432498
  O          -0.92758314406323     -3.88901864356252      5.15486074486124
  H          -0.70959040196774     -1.96983795496692      4.59901402281904
  H          -0.16547133618533     -4.25297443664497      2.61467145241295
  H          -0.10952019998164     -1.17850197691971      2.39093847982530
  H          -0.52420797128852     -2.29644168158368      1.05686934299496
  Cl          2.48280649324740     -0.71363151543037     -2.43420995335278
  Cl          0.82529745750046      1.49893349709756     -1.61624570992825
  Cl          3.44089751809238      1.14950005083180     -0.45297167748132
  H           3.67767990191339     -2.55625249058704      1.04880867055707
  H           3.86745607902028     -1.26163244603412     -0.06312734210258
  H          -0.82927160437250     -4.78150255174338      4.79777663989390
