19
Coordinates from ORCA-job NEB_reactant E -33.827014977380
  C           1.22226950164152      0.27422836364077      0.32927462971145
  C           1.56698430877981      1.47032813879969     -0.13723396694881
  H           1.47677354564784     -0.05922033338196      1.31731662152497
  H           0.66595882483915     -0.41050897765922     -0.28159684685788
  C           1.18036545067360      1.89785486967507     -1.53841154858638
  C           2.99804179306549      4.24742729310525      3.20454237894278
  C           3.45467898237032      3.41154200768200      2.27395382228207
  C           2.70390751158195      2.20621955230195      1.81777062410935
  O           2.25733753004374      2.44355186948413      0.48432926999410
  N           3.69256800984448      5.32420365979732      3.70796594488056
  H           2.05340653381149      4.05840534558842      3.69752340817594
  H           4.39081799811871      3.60367796034250      1.77220244550861
  H           1.83675805461241      2.02002706529496      2.46413188594417
  H           3.34922057715626      1.31615012182934      1.82003710636309
  F           0.39816706996426      3.00498396535895     -1.51575165753446
  F           2.27094718020642      2.22047319705816     -2.27452663244113
  H           0.63159552215853      1.11019659317658     -2.07680390290760
  H           4.47020298236995      5.63360802276024      3.14464619507394
  H           3.13809862311404      6.07505128514582      4.08563022276521
