19
Coordinates from ORCA-job NEB_reactant E -29.607224973520
  C           2.39322714971263      0.48358348684093      0.36445367530208
  C           1.60461134082906      1.07503344413083      1.26646254049184
  F           3.02569490737863     -0.70821719074713      0.54779871837311
  H           2.63125258289515      0.92899932300719     -0.58550340062851
  N           1.06279478838365      2.33316641001678      1.00981287134758
  C           3.90577539912334      1.08720336335714      3.40752875342460
  C           3.35200424611117     -0.11199221256849      3.45057921186410
  C           1.92221505157015     -0.41974650442831      3.11284669595704
  O           1.21887955177750      0.64403156283129      2.49562236925312
  C           5.33193455086127      1.36870504562185      3.73934763554423
  H           3.31946235633486      1.94701713689316      3.11070813612992
  H           3.92682816037799     -0.97947134669157      3.74386628405206
  H           1.35663529625748     -0.61135546911639      4.03262521310216
  H           1.87495981479201     -1.32399114213887      2.49418106828732
  H           0.26378225028070      2.52466435159515      1.59693370054391
  H           0.89900662954197      2.53687972735681      0.03657343623725
  H           5.83845080010244      1.79750821802577      2.87519569178669
  H           5.85104568440759      0.46093474225144      4.03610468102729
  H           5.39263943926241      2.09374705376242      4.55056271790420
