20
Coordinates from ORCA-job NEB E -41.987381822290
  C           0.61267425565138     -0.02446304463506     -1.09241562843065
  C          -0.59714076011077     -0.74750817439762     -1.16294427445017
  F           1.76452917550869     -0.72698989286522     -1.01589048845942
  H           0.75681605084308      0.84676116149829     -1.72755139335516
  C          -1.83069660521126     -0.06551696756199     -1.67737028944612
  C           0.47456186441537      0.59261137735852      0.68366695525318
  C           0.39976057407236     -0.60148815067959      1.41911897180395
  C          -0.73039005368185     -1.43399431572089      1.17380785409886
  O          -0.72031599747105     -1.79138258839368     -0.39308836075747
  C           1.67081145984675      1.48304407449513      0.92024483734357
  H          -0.42243928712987      1.20171304527676      0.59308643143410
  H           1.32345045544299     -1.05960485844184      1.73897681771973
  H          -1.70414956592249     -0.95434678640543      1.26147642799082
  H          -0.70986191856888     -2.41138592789033      1.64002043444659
  H          -2.47455654556268      0.22118737204072     -0.84225536481212
  H          -2.39695359736299     -0.75945339241577     -2.29513305844243
  H          -1.58183555581819      0.81405777496001     -2.26177298550466
  F           2.82286629401711      0.83070621104102      1.05727317708841
  F           1.84075535750754      2.38159585653460     -0.06543344009984
  F           1.50211439953477      2.20445722620235      2.04618337657882
