20
Coordinates from ORCA-job NEB_reactant E -42.023909714810
  C           2.57111400051209      1.37232918670020      0.34795911946680
  C           1.38634465683938      1.56556069872287      0.91793891604057
  F           3.66017009007665      0.84150538283688      0.96051637603666
  H           2.78007205042216      1.63005837078814     -0.67591716688852
  C           0.25565310374329      2.16176209139036      0.13263714437687
  C           2.97635919015301      2.97018256085734      3.31965541128807
  C           2.96855369069788      1.67229479533223      3.57507379226265
  C           1.90997516321933      0.72675716951648      3.10114118142494
  O           0.98913658535879      1.28259616804329      2.19136773986818
  C           4.04805434289723      3.88996000624273      3.80310297643848
  H           2.20842770200623      3.46480495595729      2.74450690979193
  H           3.75777366539064      1.21724202424591      4.15624119480136
  H           1.30324204162607      0.41847784065969      3.96078026135392
  H           2.38548099657309     -0.17059829628256      2.68636952056264
  H          -0.09395164473002      3.06713426690863      0.62443222022248
  H          -0.57562305828813      1.46038678247381      0.10359650177331
  H           0.56589079733789      2.39685465269469     -0.87912994368772
  F           5.00509065307424      3.27839745884550      4.51219298961947
  F           4.66477979256554      4.52244356580645      2.78828286374626
  F           3.55155618052465      4.86215031826006      4.59405199150164
