20
Coordinates from ORCA-job NEB_product E -42.032684746350
  C           2.34005287959343      2.17677906828815      1.43559167567923
  C           0.95213348562344      2.71797380663340      1.00819511893117
  F           2.44570870039703      0.89841136697724      0.92855991591803
  H           3.14048216099926      2.75590995147320      0.95564318621627
  C           0.80821785562822      2.87778440370226     -0.47092403751721
  C           2.50623751331420      2.15645692360631      2.96399734387141
  C           3.46080248152934      1.08484306161940      3.41713055800172
  C           3.12638747148609      0.12943045170216      4.26117964368138
  O           0.09830835944049      2.95012657012634      1.81654396595680
  C           3.03178258095258      3.51622083860889      3.41027444580345
  H           1.52228416016495      2.01918941199916      3.42791868146494
  H           4.45463568232171      1.14611320395208      2.99641813024246
  H           2.13660630257141      0.05989354091769      4.68063183578544
  H           3.83174711023971     -0.62385341189486      4.56392578365500
  H           1.41565551586885      3.72175255573789     -0.79529937218513
  H          -0.23020766104214      3.06468070628903     -0.72919759890378
  H           1.17105214494212      1.98589599118312     -0.97770188058978
  F           4.28130111698933      3.74617648882055      2.96909077589995
  F           2.29275951403173      4.53861188482504      2.95177957736912
  F           3.06765262494823      3.62950318543295      4.74054225071952
