21
Coordinates from ORCA-job P E -35.770891998100
  C          -1.31863933736486      0.38498187383515     -2.33486413202575
  C          -0.13992360715454     -1.69965686516074     -1.02447820225876
  C          -1.49300369850290     -1.91100285000906     -1.62257846764676
  C          -2.06404954813990     -0.91163122279078     -2.27464650705767
  C          -0.87516571048756      0.76139368767853     -0.90875425887218
  C          -0.05952543568061     -0.36594855106162     -0.25037256926815
  H          -1.96239510684696     -2.87581794245231     -1.52526333220820
  H          -3.04147001729725     -0.96228587513607     -2.72475297044806
  N          -2.16171675349850      1.48722926111620     -2.84154846687415
  H           0.13230945861091     -2.51802825946735     -0.35983647782008
  H          -0.44293953215578      0.32586144685431     -2.99190864686320
  H           0.59794392453197     -1.67729529308869     -1.83360444069945
  H          -1.77937557128317      0.95060706489049     -0.32707073512179
  H          -0.45240007007940     -0.53998190908981      0.75516967508053
  H          -0.29029822987471      1.68307167059572     -0.93899433035130
  C           1.40269626449592      0.05639595251048     -0.10593545668298
  O          -1.61943289188663      2.31130741325887     -3.53881662707442
  O          -3.31770514902130      1.50972188961366     -2.49921723080839
  F           2.12144557603347     -0.92728349051868      0.52531638584112
  H           1.50137459253526      0.95773985593288      0.50797042957385
  H           1.87498084306655      0.21436214248882     -1.08180363841420
