21
Coordinates from ORCA-job TS E -35.667830706030
  C          -0.82170274810442      0.43226391842810     -1.34309955553474
  C           0.51718903636482     -1.71616301143188     -0.03951224950347
  C          -0.80914463838553     -1.77373203898797     -0.34044078256135
  C          -1.46658112306362     -0.72272250601269     -1.00018091852399
  C          -0.17840080456711      1.08180697803275      0.80179362190974
  C           0.60208054110521      0.11167777508332      1.33832050038590
  H          -1.42271942067617     -2.55040426581681      0.09286227994219
  H          -2.54648811590112     -0.72985100199153     -1.06216096097635
  N          -1.55654807726639      1.55532669684995     -1.80626271685482
  H           0.96737681821606     -2.47476022145757      0.57867357062488
  H           0.22903285383162      0.50041836062081     -1.56885251348479
  H           1.20150575883539     -1.15148622503075     -0.64544365689166
  H          -1.22092025273206      1.14762041453846      1.05724872333884
  H           0.20159980399086     -0.56965202456513      2.07298168357734
  H           0.26237762015185      1.94734639577538      0.33613962428398
  C           2.09660928963913      0.25642210091135      1.34717231984941
  O          -0.91025082190442      2.47130389837392     -2.28195467201732
  O          -2.76513546355038      1.55675808114288     -1.68003931996577
  F           2.72683923696818     -0.94259689839797      1.57272916146771
  H           2.40869592888636      0.91712677429073      2.16735584244897
  H           2.48458457816174      0.65329679964463      0.40267001848529
