17
Coordinates from ORCA-job NEB E -37.817691301740
  C           0.86260481765421      0.88001129015182     -0.70636148947389
  C          -0.11698038223364      0.60067663599391      3.12790875303245
  F           1.86700310864016      1.30492875622584     -1.46723936278077
  H           0.48809976130344      1.58267703151291      0.01210100959780
  C          -0.57864965408837      0.57316463530174      4.34679697008320
  C           0.46917271119140     -0.54131379347889     -0.72932383009689
  C          -0.59609623042213     -0.06192261460443     -1.68293956357469
  C          -1.87346528861055      0.15437335397137     -1.31076807439516
  O           0.28670236977745      0.41147131971091      2.03866949616322
  N           1.44222863170308     -1.48928518459864     -1.30575771808766
  H           0.10594763258005     -0.89932814647746      0.23265546910577
  H          -0.26807969247056      0.06022529551303     -2.70436856321967
  H          -2.20036512961777     -0.03023735597214     -0.30430248073343
  H          -2.58001582006033      0.54723646218652     -2.01767619039887
  N          -0.89537504589513      0.61000526464098      5.48128193317810
  O           1.87428156756699     -2.31747137111063     -0.54115564025412
  O           1.71298664298173     -1.38521157896682     -2.46952071814543
