17
Coordinates from ORCA-job NEB_reactant E -37.970414866910
  C           1.83772643914240     -0.52467973199072     -0.09580781928254
  C           1.41332821290191     -1.51505892079621      0.69965318414114
  F           1.54668709783808     -0.41759472304188     -1.40316534326845
  H           2.46257962011352      0.27850675387804      0.26043567036262
  C           1.83795634422970     -1.44978057544507      2.06099947365761
  C           2.39892050336892     -3.54347593899305     -1.59746501374468
  C           1.13947598417678     -3.22062171925386     -1.86249958003770
  C           0.12742801720746     -2.77977167642123     -0.86024573995430
  O           0.62870901824175     -2.59194390377942      0.44528257087582
  N           3.29010876288958     -3.95481640935700     -2.64500926470568
  H           2.86072808213616     -3.53528193384767     -0.62154155010333
  H           0.79063432626824     -3.27214163821597     -2.88624523716763
  H          -0.62885505925842     -3.56663813884613     -0.75389795708070
  H          -0.38002660579853     -1.87711303739617     -1.22526679235855
  N           2.17491690207622     -1.39607831007422      3.15242164397869
  O           2.85372574605386     -4.03795478152089     -3.77128263451768
  O           4.43115660841234     -4.19295531489857     -2.31636561079463
