17
Coordinates from ORCA-job NEB_product E -37.962044893960
  C           2.81760620455214     -1.66303659203169     -0.50726396024342
  C           2.18060306190333     -1.60514693414726      0.88456921610536
  F           4.14713577252440     -1.96053911466032     -0.38147959688146
  H           2.74309625620531     -0.69184956608642     -1.01945249440719
  C           0.92263377488905     -0.87262107468600      0.88317346014187
  C           2.13940874044495     -2.75908620514419     -1.34143128152181
  C           0.64311906228141     -2.62777910669593     -1.36784288465581
  C          -0.17711233476788     -3.58291608155250     -0.97136898608827
  O           2.65328782626428     -2.10084491165746      1.86496278955273
  N           2.60006327287204     -2.63238785220879     -2.77145682888771
  H           2.45450192715094     -3.74710370256727     -0.98995206740774
  H           0.27494011565196     -1.69425331637255     -1.77160449591188
  H           0.18187048246440     -4.52128131917053     -0.58208764751562
  H          -1.24388836946982     -3.45560228137018     -1.01517862357585
  N          -0.05023243287494     -0.27178421359190      0.91010225544335
  O           2.60638293776957     -1.52453790307691     -3.23847283435776
  O           2.87578370213885     -3.65442982498011     -3.33371601978877
