36
Coordinates from ORCA-job P E -47.460908486160
  C          -1.53851218640608      0.28528149322195     -1.71235010543485
  C          -0.61706816473031     -1.63243052759335      0.39000298207266
  C          -1.52115729901665     -2.01097911259950     -0.74144018525881
  C          -1.93541259884471     -1.17030416705137     -1.67320150838032
  C          -1.10176388364257      0.73048692035391     -0.31073733398032
  C          -0.03012205659641     -0.23179350085500      0.21232728971346
  H          -1.82949622157733     -3.04791943824264     -0.76149227530706
  H          -2.57831912812079     -1.51286060928409     -2.47239211589789
  N          -2.55199393285426      1.17906087001410     -2.26031295777014
  H          -1.17855324292232     -1.68217048659802      1.32835571700849
  H          -0.65751360319242      0.38186417034151     -2.35573518778373
  H           0.19422886979378     -2.36193591848740      0.45329882185427
  H          -1.94558308311325      0.70113211788497      0.37761061957381
  H           0.34854758313003      0.14265275065168      1.17002861172819
  H          -0.71684301434746      1.74881181105088     -0.35442936277482
  C           1.15561974894801     -0.26594690429689     -0.73514488899967
  C          -2.80529418119725      1.09873504486393     -3.70452211582075
  C          -3.21186228627630      2.49551046640990     -4.19113248351332
  C          -1.60974972850842      0.64212614076007     -4.53967493118637
  C          -3.78884604558550      1.13075085519635     -1.50093327445122
  H          -3.63801660331091      0.39918302574391     -3.90499401713142
  H          -2.38825870255737      3.18624768048956     -4.03156301263998
  H          -4.07742295489354      2.87275348807404     -3.65499359735163
  H          -3.45179066741034      2.46964755322807     -5.25128893088469
  H          -0.75768925754030      1.29914933412724     -4.38062788369838
  H          -1.88326548280785      0.69234123964165     -5.59169028202480
  H          -1.32000051601996     -0.38196482807606     -4.31962416982003
  H          -3.64995360213834      1.63417069956487     -0.54513421017311
  H          -4.13011318570760      0.10277927177607     -1.31172538769705
  H          -4.57479774203565      1.65528325441009     -2.03729069853559
  O           1.60174038272693     -1.24373326956766     -1.27359139070610
  O           1.68023087742226      0.95859353591229     -0.88826239109522
  C           2.79581653809031      1.05573501110894     -1.76146869973338
  H           3.11749635142681      2.09345565855116     -1.73105636134700
  H           2.50911453928054      0.77306965108889     -2.77670920166740
  H           3.59780448053525      0.39388671818598     -1.42824508088579
