36
Coordinates from ORCA-job R E -47.384963965170
  C          -1.24028480922255     -0.00264451073286     -2.54773789958192
  C           0.61153731221601     -2.09464299624903     -1.42816284783036
  C          -0.69596071521138     -2.23193666344843     -1.65624198383677
  C          -1.59628465216952     -1.26437523897614     -2.22673546984021
  C          -1.49829550391351      0.37152695769882      0.35574000770490
  C          -0.53116313979710     -0.36990920596413      0.88309378053229
  H          -1.16291508543024     -3.16987105540218     -1.37969979930236
  H          -2.60977363805962     -1.60814308939600     -2.37107135097721
  N          -2.02070783019472      1.00813173385026     -3.01738892545182
  H           1.18722805997714     -2.88264984237991     -0.97591492702904
  H          -0.21131622461988      0.28839187040318     -2.39507883538028
  H           1.15987496336420     -1.21022439129832     -1.70098474707453
  H          -2.53248971757519      0.08140065527738      0.42696115707611
  H          -0.73410413911742     -1.29110081369359      1.40818919780296
  H          -1.28408962645854      1.30277283195249     -0.13790449218168
  C           0.89632126369266     -0.01730970864019      0.83002855651880
  C          -3.42014711381351      0.78585737368238     -3.33337239409714
  C          -4.25246920829167      2.05420717311318     -3.15211386640891
  C          -3.59164341773284      0.21691363371946     -4.74646049800320
  C          -1.39429794187216      2.20612111110389     -3.51775289084867
  H          -3.78420875097985      0.04699448462323     -2.61225628798314
  H          -4.02405034861928      2.79306019170698     -3.91573494156002
  H          -4.07678909640810      2.48911575056289     -2.17116127397241
  H          -5.30725590548154      1.80321044319726     -3.23045435200142
  H          -3.28494947224381      0.94488241344168     -5.49410260897125
  H          -4.63239617570435     -0.03979194725815     -4.92489746864505
  H          -2.98518335540443     -0.67792004367144     -4.86309374472218
  H          -0.32671227866210      2.17155285564244     -3.31264254572649
  H          -1.80541498473064      3.09364526482714     -3.03090714382418
  H          -1.53054960189560      2.30890643627573     -4.59899265514096
  O           1.76315257113599     -0.57780594320462      1.45579278533908
  O           1.15114579329394      1.02475826887906      0.01054236679056
  C           2.51246901633765      1.40989241797205     -0.07722743947277
  H           2.55391179704206      2.23383448432599     -0.78591283703401
  H           3.12362131095844      0.57327571928432     -0.42431768827133
  H           2.88337064559147      1.72762337877516      0.89971406340460
