28
Coordinates from ORCA-job R E -44.738243688580
  C          -0.69365738484229     -0.57995221191465     -2.65519571658350
  C          -0.04684914904373     -3.34730993213581     -1.69028576634377
  C          -1.26487785813862     -2.82187963239416     -1.79079366834110
  C          -1.53388413822488     -1.42139454021590     -2.04014153141932
  C          -1.82822245877765      1.46490965438929      1.10485909703067
  C          -0.96724748146302      0.54490923387863      0.69811104533218
  H          -2.13747355949619     -3.44574910129037     -1.64175932063133
  H          -2.49307101750728     -1.04903792397174     -1.70411018524093
  C          -0.95334366681577      0.85139934987691     -2.82843053117079
  H           0.10129246505104     -4.39409159154667     -1.48752378136626
  H           0.26120501391245     -0.90812741214663     -3.03697758433010
  H           0.83578408160046     -2.73624814119412     -1.77228346065526
  H          -2.74514461895175      1.20168954772489      1.60356253501155
  H          -1.13756474897474     -0.51065203654893      0.85431491420846
  H          -1.63983874299321      2.51362083354994      0.94838007841183
  C           0.30717438512746      0.83674238661355      0.00417498449664
  O          -0.19488626754813      1.61631785508420     -3.38102483856367
  O          -2.12057437151429      1.25161430472927     -2.28985103085817
  C          -2.38728875549705      2.64226434236420     -2.37015432181789
  H          -3.38698373057730      2.78360560018198     -1.96750006424419
  H          -2.33744217538750      2.98077171516016     -3.40749739563963
  H          -1.65332207299508      3.19815121550614     -1.78251245121435
  O           1.12499626668378     -0.01265085645082     -0.26234927276185
  O           0.45395948638517      2.13271932518939     -0.28786348289872
  C           1.63610020545435      2.50659160136073     -0.98825432516471
  H           1.84139626033250      3.54168285796934     -0.72450699980339
  H           1.46217971825470      2.41355189154221     -2.06263549233609
  H           2.46423431594656      1.85882166468900     -0.69598143310631
