19
Coordinates from ORCA-job NEB E -42.059815332250
  C          -0.04915802294539      0.98132450826678     -0.73233967092758
  C          -1.03321326565189      0.06465222575052     -0.28453782882796
  N           0.09411594665211      2.19330973417919     -0.07323195548608
  H           0.20981041161282      0.98665975663488     -1.78380526267936
  C          -1.40350514944048     -1.07676485732732     -1.24080508952704
  C           1.54252376816026     -0.04077946221568      0.03679967528254
  C           1.08101233654019     -0.96058198123111      0.99215064707972
  C           0.24879781507722     -0.52961393603903      1.99792340368893
  O          -1.30941182028090     -0.05449091168968      0.93418010267561
  Cl          2.41410793367190     -0.66570955366849     -1.32523094847390
  H           1.95019378934419      0.90205404650203      0.37825004858531
  H           1.06426995653270     -2.00661515040248      0.71588642224518
  H           0.33110169799400      0.47829048749799      2.37107905301679
  H          -0.20474663292550     -1.24272890692790      2.66468438758610
  H          -0.54366525211583      2.31250508775806      0.70037134065873
  H           0.19649850119615      3.00578904043585     -0.65707444958721
  F          -1.45066906973774     -0.65458789959282     -2.51793671887000
  F          -0.53480276344742     -2.10552239340398     -1.22146372398248
  F          -2.60326018023638     -1.58718983452681     -0.95489943245730
