19
Coordinates from ORCA-job NEB_product E -42.091708822250
  C           2.92551229558931     -1.02599525668636      0.09748078989987
  C           1.80550852221162     -2.00439617121618     -0.23911442580940
  N           2.46802998334302      0.05923304545891      0.93539233305781
  H           3.34515114145446     -0.60706586912572     -0.82233450793598
  C           1.74396510242448     -2.54492691011544     -1.70150178604440
  C           4.04279494506408     -1.78493110354483      0.85128567492582
  C           3.60142465800603     -2.32397590026069      2.16907784097335
  C           4.19437455641551     -2.01603221480413      3.30867814319917
  O           0.94342838210461     -2.32853553406099      0.52654736175256
  Cl          4.59196668922452     -3.15758289381557     -0.18058486395547
  H           4.89391989079651     -1.11177251782339      0.97128925344152
  H           2.76615606229423     -3.00971330568283      2.14353436390099
  H           5.03231262843949     -1.34022510152653      3.34863985839390
  H           3.86188543558163     -2.42819843321393      4.24518163446482
  H           2.07230348000553     -0.29928615005663      1.79843492644571
  H           1.76183012903095      0.61254004622224      0.46382412051096
  F           2.74124420761525     -2.11647216980731     -2.48195084100067
  F           1.75003004517734     -3.87681852856738     -1.73009458311454
  F           0.60416184522142     -2.13284503137324     -2.28018529310603
