19
Coordinates from ORCA-job NEB_reactant E -42.106679368370
  C           1.56068668681893     -0.17337368267272     -0.04567625859631
  C           1.95404920524528     -1.41725616567886      0.28166435326733
  N           1.50753626562689      0.86133740535996      0.83552183118834
  H           1.30059669751964      0.04991981852820     -1.06939206627439
  C           2.08265253738041     -2.47209561033219     -0.77875452115512
  C           5.22071183008809     -3.37088022188098      0.70847949523336
  C           4.17073632663093     -3.24799638971399      1.50238042655598
  C           3.61356997446531     -1.92042189553072      1.91873887164982
  O           2.23014728454163     -1.76910382384680      1.58898667655935
  Cl          5.86124217365288     -4.88970548621565      0.24365882045003
  H           5.76038531816285     -2.52957311322731      0.29965694552871
  H           3.64275519496909     -4.11456028337137      1.87173650021128
  H           4.19639953059828     -1.09965367178217      1.48330480838941
  H           3.63315038664912     -1.84329645871336      3.01060009909778
  H           1.57916482519346      0.60348902298918      1.80815332001973
  H           0.89034592852690      1.62677267554004      0.62649752489112
  F           3.28272867366985     -2.44677663143181     -1.41174830328193
  F           1.93322299553816     -3.71258445946890     -0.31005423377578
  F           1.17151816472233     -2.31304102855055     -1.75875428995869
