19
Coordinates from ORCA-job NEB E -43.181486167700
  C           0.68808876302039     -0.70059751306248     -0.65968285277637
  C          -0.62389336383418     -0.32576770563639     -1.03587492081008
  C           0.87849959660999     -1.94670148957158     -0.00573342437510
  H           1.50139097134558     -0.44071777448152     -1.33151314619472
  C          -0.72235993064924      0.72694343110515     -2.14948931232713
  C           0.98937814925549      0.46639238766523      0.91160763229796
  C          -0.14318980091532      0.11525698505342      1.68138771965799
  C          -1.41279883497046      0.47538298947025      1.27450194738502
  O          -1.61934207083070     -0.50870806974915     -0.29384223484125
  O           2.23981305121788      0.17644874312845      1.31216401221822
  H           0.98254816563653      1.41288897545594      0.37822565678195
  H          -0.02967200078175     -0.70403925214488      2.38033030382016
  H          -1.56853620463934      1.42012113035011      0.77426945018755
  H          -2.26350290062097      0.10068589186920      1.81997947931016
  N           1.06766830635691     -2.92816648372822      0.55177016821138
  F          -1.95084190734545      0.83855931392100     -2.64422718360099
  F          -0.37439348190035      1.95273693951105     -1.68682873119310
  F           0.10798549608250      0.46842784642921     -3.16978924856262
  H           2.25315799696246     -0.59914634558479      1.89274468481095
