19
Coordinates from ORCA-job NEB_reactant E -43.218151379580
  C           2.08360609281489      0.38329763665742      0.28512775710519
  C           1.43288924274260      1.55760391213481      0.32185178810746
  C           2.26501901195659     -0.51331201462052      1.34953769121665
  H           2.53097199659006      0.06216240359437     -0.64520601401365
  C           1.34892930625414      2.41466566716748     -0.93343410185567
  C           3.10708958154790      2.44189090888211      2.95754812685436
  C           2.12255016873644      1.61103929077348      3.27593701422167
  C           0.77591279788039      1.62033693731509      2.61412865896877
  O           0.78834489252819      2.18402571305119      1.30843581756820
  O           4.33287662030648      2.45865900807565      3.51170451752627
  H           3.00990267071790      3.20136990569899      2.19367599092319
  H           2.25275438881960      0.86204234264437      4.04331800850571
  H           0.07190520331622      2.25598934869562      3.16248060051722
  H           0.37032222372083      0.60268180655632      2.57623992337355
  N           2.45492662078577     -1.29497840773478      2.16840517085450
  F           0.08148147418510      2.64666515513665     -1.29108557389496
  F           1.92796121351625      3.60687416351199     -0.74482330335343
  F           1.95225376374742      1.85402549156826     -1.98714699530732
  H           4.40530272983323      1.76896073089150      4.18500492268232
