23
Coordinates from ORCA-job NEB_product E -58.143374818930
  C           2.78446152031477     -1.81813587185957     -0.27112852289098
  C           1.46152058453872     -2.45777765332633      0.10944107859375
  C           2.51252577411474     -0.35146059270012     -0.67306839574736
  H           3.47032738609321     -1.77205906244714      0.58208830186807
  C           1.19746914538905     -2.70333214347975      1.59754393018690
  C           3.48969093102173     -2.54371366333289     -1.44888009374025
  C           2.59553706673474     -2.76919958595728     -2.63860234462326
  C           2.78150770806498     -2.15723730812139     -3.79312639872124
  O           0.56864673695391     -2.65584852228582     -0.66145063977688
  C           4.11040098822052     -3.86683341923233     -1.00921187367263
  H           4.32359240644996     -1.89815520455630     -1.75909505091723
  H           1.78331232329985     -3.46960118398767     -2.50765296713171
  H           2.13000361415691     -2.33732750935249     -4.62884495930991
  H           3.57865502657642     -1.44803033971235     -3.94642673035860
  F           3.66150737953885      0.21956894049025     -1.09706852434016
  F           1.63717316542039     -0.25315718717098     -1.68569519282796
  H           2.13323931010563      0.24975330784782      0.16745848263708
  Br          0.57755415933100     -0.94355017342587      2.22993745243057
  Br         -0.23543150235436     -3.98309695440664      1.78027283511810
  Br          2.69607865837349     -3.23674867668085      2.68932046697128
  Br          4.95109885383208     -4.73691953913730     -2.53857350873689
  Br          5.51115974621429     -3.59220639450921      0.33910837573463
  Br          2.77986901760915     -5.09503126265579     -0.28074572074531
