23
Coordinates from ORCA-job NEB_reactant E -58.138539286410
  C           2.16295007357212     -0.56556047611237      0.06373857751612
  C           1.36106373978896     -1.62328586400065     -0.09627995884274
  C           2.65417253861465      0.36043986891392     -1.00457662433011
  H           2.49706630299070     -0.30666394409809      1.05562578968358
  C           0.91000866986570     -2.40854654431103      1.11578048416590
  C           3.95036871967387     -3.33543173423804     -1.92069468514861
  C           2.64126194558414     -3.52699862545406     -1.95928766611914
  C           1.66767360765862     -2.45432694595321     -2.34117909067221
  O           0.83818330843480     -2.15407290625810     -1.21395618236031
  C           4.95940702978621     -4.31360660331346     -1.45973594033198
  H           4.38609836157178     -2.39302428532111     -2.23038053900251
  H           2.19491512141058     -4.46201455955505     -1.64590673591825
  H           0.95955706021585     -2.82309571270778     -3.08717760342116
  H           2.17249079718641     -1.57181253374646     -2.73326869342908
  F           3.74926657171261     -0.13883441613892     -1.64834605512690
  F           1.72891656300110      0.57301129104668     -1.96953873095416
  H           2.93869496705932      1.33734503112271     -0.58897455225877
  Br          0.58430187551885     -1.32333018196505      2.68508392872585
  Br         -0.69742958033855     -3.40374961241959      0.71680916615924
  Br          2.34074632152802     -3.69552042494365      1.53990819436961
  Br          6.28623681361143     -4.60799849623368     -2.88158585051812
  Br          5.89735468522561     -3.54053103218781      0.09580022505010
  Br          4.25249450632724     -6.03959129212521     -0.93275745723633
