24
Coordinates from ORCA-job NEB E -51.457475648500
  C          -0.04580552848799      0.71443754995894      0.86653457122586
  C           0.41659872832600     -0.39680021110589      1.62085137034941
  C           0.82528626849662      1.87104042198856      0.49811386017633
  H          -1.01693784637214      1.06831735849966      1.20910354830342
  C           1.86887945901920     -0.87514624852979      1.54520874931324
  C          -0.71998074512312     -0.17463740806862     -0.72270235519230
  C          -1.63067412916810     -1.08658747522276     -0.13887086378353
  C          -1.16912951355663     -2.12067167294536      0.66727635621425
  O          -0.45198819863525     -1.22101737180357      2.03621382328453
  O          -1.23988056162994      0.85229732352397     -1.45473648422019
  H           0.21801454554625     -0.58002868338485     -1.10943219634754
  H          -2.64731951387300     -0.73617020587579     -0.02913273520726
  H          -0.26287464030481     -2.64188214351065      0.38843072232657
  H          -1.89221665167338     -2.72923102842217      1.18814389409417
  Br         -0.20939878887435      3.32066183146134     -0.27688491287809
  Br          1.65230653570947      2.61097211182159      2.14987444088374
  Br          2.28003854914924      1.47019160952582     -0.73080286208318
  F           2.06899928441307     -1.86093230257758      2.43567869091170
  F           2.11336797940927     -1.42167641216524      0.31468375198716
  H           2.62639844339328     -0.09838176472160      1.72392291739701
  C          -0.77591659833191      0.97518183287346     -2.78667559652032
  H          -1.20578407157058      0.18853437356677     -3.41313574148736
  H           0.31438797844954      0.92298646796268     -2.84800436181969
  H          -1.11637098431074      1.94854204715108     -3.13365858692795
