24
Coordinates from ORCA-job NEB_reactant E -51.497185594810
  C           1.61288754101286     -0.05832458704854     -1.30432795441268
  C           2.03039735124795     -1.32444695226859     -1.14774249982068
  C           2.38566763459007      1.16945906519783     -1.04646410165444
  H           0.61116710923107      0.10721836583876     -1.67145649551949
  C           3.42112695146690     -1.72862517925620     -0.67730735155910
  C           0.89525378703024     -1.72036203210024     -4.14338725430017
  C          -0.10476345090695     -1.68274579095294     -3.26726533463152
  C          -0.01016674541796     -2.30597448334142     -1.90135996954572
  O           1.31494179950670     -2.41963299343155     -1.40566202150611
  O           0.94099432350420     -1.20391474537893     -5.38236583051128
  H           1.83898111883847     -2.19511874495647     -3.90603744045485
  H          -1.05446628937300     -1.22443460967233     -3.49146592037059
  H          -0.36722797193975     -3.34140851431956     -1.91876249061449
  H          -0.62533442572893     -1.74482807305859     -1.18541986824324
  Br          1.33638613977246      2.72952933421273     -1.54504991037948
  Br          2.84851687658458      1.38831826182581      0.88089913778895
  Br          4.07375114068588      1.25960483928220     -2.07494651001492
  F           3.33737128916595     -2.77929825026526      0.16146797322701
  F           4.15301248705425     -2.13520378333288     -1.74124269788031
  H           3.98059809736051     -0.93557156604514     -0.16258455014937
  C          -0.20702596736629     -0.54411894515202     -5.86720309129546
  H           0.03991322150400     -0.21471445669205     -6.87428976297082
  H          -0.45484574009075      0.32493846656817     -5.24983094392863
  H          -1.06653627773246     -1.22004462565279     -5.90259511125261
