21
Coordinates from ORCA-job NEB_reactant E -41.190689554390
  C           1.48697520391031      0.26881096974104      0.03697475978350
  C           1.18836579350912     -0.98253298321904     -0.33872272235166
  O           1.35930172883564      1.32604605468605     -0.79111337081883
  H           1.85886329661107      0.46105747637425      1.03650545624267
  C           1.30270143500766     -2.10236423056173      0.66037831335677
  C          -0.56159695363187     -3.27861974794581     -4.06096443486986
  C          -0.52747712386978     -2.20841244739160     -3.28940891503242
  C          -0.15734543732608     -2.25728961742044     -1.84179122466450
  O           0.83282231891497     -1.25836991401425     -1.63033740886146
  Br         -1.06268698757307     -3.20334631744203     -5.87805706274160
  H          -0.33340217059335     -4.27782728029153     -3.72527122922450
  H          -0.75082925094400     -1.22471629966257     -3.67524730298422
  H           0.21765301291156     -3.25264913802605     -1.57377912058010
  H          -1.04766279082439     -2.03838908403598     -1.23328861876654
  C           1.88279024027310      2.54515884115594     -0.31379972340489
  H           1.62766068794779      3.29676172356357     -1.05794062331897
  H           2.97111849353471      2.49490449404033     -0.20782690322912
  H           1.43969936230907      2.82041686491611      0.64879119649442
  F           0.07997039039462     -2.57610626992999      1.04354215636215
  F           1.95957107934420     -3.17385403030483      0.15198250929765
  H           1.82640767125872     -1.78717906423144      1.57397426931154
