21
Coordinates from ORCA-job NEB_product E -41.194568824360
  C           0.78110272165224     -0.26949927584194     -1.33932139885459
  C           1.70912171840479     -1.06853882513851     -0.42786243120871
  O           1.48906293803880      0.68585546755241     -2.07561727133707
  H          -0.01588295519928      0.20191723919630     -0.74003742627479
  C           1.07891762838785     -1.69861817449567      0.83938135646894
  C           0.16725775977520     -1.24600527578693     -2.35630126554759
  C          -0.68614362947367     -2.30476513137725     -1.75539257659561
  C          -0.49966466540827     -3.59346290953658     -1.97414879930157
  O           2.87532959129903     -1.23121963860093     -0.64376924265998
  Br         -0.93102759159398     -0.15926699235233     -3.57810601077355
  H           0.96666676241224     -1.65538653897754     -2.97690680787263
  H          -1.50184921508359     -1.95155977556684     -1.13891313351602
  H           0.30364887136896     -3.95606572003660     -2.59437634716906
  H          -1.13712258855392     -4.33661005266560     -1.52975472859794
  C           1.91746280654514      1.80491551284754     -1.33620329122223
  H           2.35661388128939      2.48627944151727     -2.06089804184899
  H           2.67036323055635      1.53160861307243     -0.58974513438182
  H           1.07242713023315      2.29449099512161     -0.83793573650584
  F          -0.17445992284719     -1.25402175987511      1.07733007740026
  F           0.99815875568325     -3.03880589405673      0.69234707724111
  H           1.69691677251350     -1.48874130499901      1.72753113255770
