20
Coordinates from ORCA-job NEB_product E -37.791274554960
  C           2.69958204609444     -1.01167874153157      0.58479861690992
  C           1.32301560123995     -0.92599017825659      1.19740765694641
  C           2.62310489423109     -0.76443677426579     -0.91788006900342
  H           3.34817113260959     -0.27294842806997      1.06776577682235
  C           1.26080215256266     -0.69803629727761      2.72981522970212
  C           3.32413394843694     -2.40595012915816      0.87529708975026
  C           2.35005983892163     -3.52568799611434      0.66988795989944
  C           2.26247638712792     -4.22328702020003     -0.44597994752991
  O           0.29635429161304     -1.03315984356838      0.58565145018367
  F           3.78637172595538     -2.42247082008690      2.17118232779310
  H           4.21006303276432     -2.52339064794789      0.23736555779083
  H           1.70533395361232     -3.72174924479599      1.51492790441873
  H           1.53439610222624     -5.00606951262966     -0.56398772864924
  H           2.91103593137047     -4.03933628593063     -1.28708533712909
  H           1.98733121098742     -1.51097830248895     -1.38688252743897
  H           3.61444135225822     -0.80818821254118     -1.36050987244513
  H           2.19656269286689      0.21623791784354     -1.11165281695536
  F           1.26256533383815     -1.88955571697924      3.36827170700460
  F           2.31955486476763      0.00442521626434      3.18545572436767
  H           0.33874350651571     -0.16394898226501      3.00915129756202
