18
Coordinates from ORCA-job NEB E -39.104246428080
  C           0.36307726500159      1.00700778185759     -0.55477135552094
  C          -0.83890058848185      0.69261398419102      0.12590465128241
  C           0.34974449138236      0.93385455617590     -1.98132036578913
  H           0.92905639117695      1.86105030203342     -0.18733314438841
  C          -1.03900177282800      1.26703645710316      1.52086321234941
  C           1.42179282258884     -0.50851198326261     -0.14085975324597
  C           0.62252401470442     -1.56829342501877     -0.58981283806911
  C          -0.62962758473565     -1.76828167483140      0.03461980759127
  O          -1.50485989420392     -0.36219331608363     -0.19125957837191
  F           2.57464880559770     -0.28032487357345     -0.79237461136451
  H           1.56357647034545     -0.33363185072227      0.92438848939327
  H           0.76857410208101     -1.89800667811812     -1.60818897392194
  H          -0.64144244815007     -1.79143227615914      1.11985543743849
  H          -1.28255780686353     -2.50427769857149     -0.41517393583608
  N           0.32705020849976      0.89491061731884     -3.12292702712979
  F          -0.20285825727383      0.64449583016295      2.40940189020530
  F          -0.71289771821177      2.57556207094202      1.56525804107138
  H          -2.06789850062946      1.13842217655596      1.88373005430625
