18
Coordinates from ORCA-job NEB_reactant E -39.134347510260
  C           1.74737740734992     -0.02062703863403      0.10864471924717
  C           1.56904265206220     -1.04633676868015      0.95648869517860
  C           1.72501827922363     -0.18944716077448     -1.28714628166033
  H           1.90846267077593      0.98219157448161      0.47355930940162
  C           1.58808352274822     -0.81862668084984      2.45790532428959
  C           4.13375796225590     -3.72285312957932      1.79772810770940
  C           3.21046626139256     -3.62096776496707      0.86054688944470
  C           1.75448750572837     -3.43390826468311      1.15552685588075
  O           1.24585879846910     -2.27399267175261      0.49976163347793
  F           5.42279550261239     -3.89366576874395      1.49254133712749
  H           3.96814701471178     -3.69824559318691      2.86542506633045
  H           3.48403990052656     -3.64117077740080     -0.18407762516900
  H           1.57635806852347     -3.40575564745513      2.23549601670294
  H           1.17406862596171     -4.25078914437134      0.71682220588325
  N           1.71823498878632     -0.30659360447915     -2.42724760085433
  F           2.73347940614839     -1.27752612831519      3.03065798786049
  F           1.52653698717775      0.49593981090924      2.74937352638849
  H           0.74138444554580     -1.31592524151778      2.96149383276078
