18
Coordinates from ORCA-job NEB_product E -39.133071337080
  C           2.67288015646299     -1.28277421526927      0.62353798697530
  C           1.33349753060973     -1.12068140483113      1.30915865605221
  C           2.49421111558389     -1.41347367792345     -0.80792850648667
  H           3.32657583406715     -0.42477823456922      0.82107848208362
  C           1.34982369404128     -0.09939872937417      2.47322636200064
  C           3.37159870104369     -2.56370458294787      1.19054475712226
  C           2.63268983656476     -3.80516615236185      0.80236986437486
  C           1.83580182695006     -4.45709672459075      1.62709979401623
  O           0.34645462372274     -1.74463937095299      1.05288784594795
  F           4.64870713578413     -2.58173850552707      0.68409223512193
  H           3.47173490015507     -2.46787570684798      2.27954226786203
  H           2.78255966607347     -4.11863281007450     -0.22059866745401
  H           1.68700190607329     -4.14184013368627      2.64733024022505
  H           1.29732442158557     -5.33263159238035      1.31201987824287
  N           2.35939131933744     -1.50970973846788     -1.93638816795236
  F           2.14324794593418     -0.58247075701174      3.46097270079817
  F           1.89580972994307      1.06944672932926      2.07687874230353
  H           0.34708965606750      0.08796560748723      2.88187552876639
