19
Coordinates from ORCA-job NEB E -32.889355039450
  C           1.06402098678903      0.00881919069028      0.59985403198452
  C           0.49566294515046     -1.07749002471777      1.22919277598421
  C           0.68707431354292      1.38838323105537      1.06468835035136
  H           2.08326098688470     -0.06900055881568      0.24300339053921
  I           1.52532610722032     -2.98241324906982      0.88656057338952
  C          -0.07098892342564     -0.15324735846333     -1.21612822675662
  C          -1.33396991412551     -0.09820643606080     -0.61988452849686
  C          -1.79205986444347     -1.15065820348040      0.16389114891299
  O          -0.68320559798734     -1.14234271238928      1.61817923416994
  N           0.37096585600287      0.83375692296269     -2.04548965063179
  H           0.34933511084628     -1.12506597653096     -1.44584510334703
  H          -1.80288234411692      0.87088953662944     -0.52070896047893
  H          -1.53516725301801     -2.16337866363212     -0.11621316066941
  H          -2.73882833209180     -1.05085874191090      0.67030312093812
  F           1.67991882397201      1.88700253080241      1.87964752363196
  H          -0.23498804449701      1.37403743429350      1.65266214872954
  H           0.60509700167147      2.10288614105423      0.23690314475728
  H           0.01385131536716      1.76446976782562     -1.89899447795131
  H           1.31757682625850      0.78241716975752     -2.38162133505669
