21
Coordinates from ORCA-job NEB E -41.831801506370
  C           0.68935471097001     -0.58535809940387     -0.91620096380536
  C          -0.26388330040254      0.41928423350262     -0.71617019956103
  C           0.23844544055159     -1.96173816614262     -1.28236876580431
  H           1.55107747233863     -0.29177834072064     -1.50334551789352
  O           0.10829741986166      1.65230666617753     -1.12250791977508
  C           1.27926121121345     -0.91617115028519      1.05461278430162
  C           0.45574209657505     -0.11133977928025      1.81031328970127
  C          -0.94522741399472     -0.26909369877203      1.61937895245076
  O          -1.25830239000440      0.30088504077065      0.08301728415831
  H           2.33620803941903     -0.70088662518991      1.01590931867429
  H           1.03737299533545     -1.96495443435639      0.98915039716785
  H           0.81064658694410      0.87163194875743      2.09478679759042
  H          -1.61116294066465      0.36846805785572      2.18821880179297
  H          -1.30838432994970     -1.28675947941418      1.52839568343169
  F           1.23504043126324     -2.86157118458100     -1.21292606374064
  F          -0.76441328880661     -2.45395588273767     -0.54487830559545
  F          -0.19489320515081     -2.00810604154557     -2.56200264341252
  C          -0.70187315562776      2.73827902223299     -0.70384804943099
  H          -1.73301601452202      2.60059857917762     -1.03659674326502
  H          -0.27064855085390      3.62224929941226     -1.16661778315074
  H          -0.68964181449508      2.83801003454250      0.38367964616548
