21
Coordinates from ORCA-job NEB_reactant E -41.864942266950
  C           1.73327998587285     -0.05257238754600      0.05259606030163
  C           1.92715315833305      0.99877973155234      0.87571498580608
  C           1.84328719318650     -1.50312637172282      0.28901864214613
  H           1.43754851287389      0.19682597246989     -0.95224686209707
  O           1.71838864073001      2.20687083612443      0.32245886276776
  C           4.10589198184841      0.01043541313114      4.93827101488576
  C           3.04052020062449      0.44027663481310      4.29116278333633
  C           2.62402594721108     -0.05970893135398      2.94174773036261
  O           2.29172637412682      1.08174394755732      2.15412968775089
  H           4.35960807182022      0.37702791269250      5.91749206654327
  H           4.75920402405701     -0.73762234661120      4.52076297427132
  H           2.38951400708563      1.19279171784230      4.71279235788362
  H           1.74249274214298     -0.70337004205552      3.04884649000393
  H           3.43527421162028     -0.62462463082785      2.47539471215199
  F           3.08559593133737     -1.93766668339975      0.62445560103542
  F           1.03876729681777     -1.98533136535958      1.27014128110780
  F           1.51282902039667     -2.18753922718148     -0.81331124922230
  C           1.90484979544714      3.35563998122489      1.13325297770878
  H           1.69251577739015      4.19996696394882      0.48147411493083
  H           2.93044354679752      3.41598881199657      1.50342654302035
  H           1.21678358028017      3.35541406270487      1.98121922530488
