21
Coordinates from ORCA-job NEB_product E -41.897830056840
  C           2.90682825590548      0.35094491912379      1.46651141138330
  C           2.02866414131991      1.59135031945799      1.64237942916001
  C           2.07197650221031     -0.76987859325724      0.85779499317199
  H           3.68189997322759      0.59177627083808      0.73131383128021
  O           2.47241554298754      2.57267546646709      0.85994679633338
  C           3.56162877266811     -0.09425233375871      2.78960531880167
  C           2.57367458663566     -0.59161939576028      3.80194139127882
  C           2.64118353567384     -1.78656595934724      4.35595469406114
  O           1.08762693123040      1.68238324539598      2.37746378768164
  H           4.09984214389421      0.76655387794212      3.19692058066000
  H           4.28877670045828     -0.87863060852452      2.56736777882782
  H           1.78041218710465      0.09612217722080      4.05546959958760
  H           1.92139293756652     -2.11304229370828      5.08541833554411
  H           3.41988449359437     -2.48847115323523      4.10360689745093
  F           2.79176950335713     -1.89307086610016      0.70690579201647
  F           0.98802638747163     -1.09955212195007      1.55621690520450
  F           1.64397259376065     -0.43403690904877     -0.37357465070022
  C           1.74170259958327      3.79451385964490      0.90781425101054
  H           2.23949555077814      4.47097476230427      0.21873802133183
  H           1.75010712485705      4.19932866757224      1.92136696943420
  H           0.70761953571525      3.62569666872326      0.60313786648007
