20
Coordinates from ORCA-job NEB E -45.499665163020
  C           0.31832817371125      1.66261774177422      0.94664923276589
  C          -0.46768708339564      0.75667185661285      1.53661281005914
  C           0.05764830463506      2.41830931064320     -0.30011324117055
  H           1.25997054934889      1.90196027309953      1.41689502469164
  Cl          0.09471110657382      0.12172571048995      3.06567154746555
  C           0.38961175874386     -1.59043004208930     -0.11109970131684
  C          -0.64484141389120     -0.98333775717194     -0.67182728008770
  C          -1.87774842083208     -0.57815886290839      0.07567625493776
  O          -1.66318342495539      0.29227970916340      1.21182850413652
  C           1.62532127431228     -1.98567886922948     -0.85072548716519
  H           0.40327189449044     -1.82757004303038      0.94423180528175
  H          -0.63314232274589     -0.74898413213772     -1.72600142890502
  H          -2.37834917223166     -1.45981745571770      0.49397380749974
  H          -2.57557250895632     -0.05832891564988     -0.58513930309923
  Cl         -1.64938538869025      2.52812201289284     -0.74002464636698
  Cl          0.67672743715993      4.08593894581546     -0.10741109119471
  Cl          0.95161048779718      1.68423731286900     -1.67450702181206
  F           2.73920994479585     -1.70749108120578     -0.09571455991052
  H           1.73258155489829     -1.44387771864939     -1.79528948644994
  H           1.64091724923156     -3.06818799557048     -1.03368573935925
