20
Coordinates from ORCA-job NEB_reactant E -45.504062464000
  C           1.93247659498096     -0.05301107313017     -0.18467103796864
  C           1.73909971767679     -1.31977764137513      0.19408683426153
  C           1.05389210309403      0.73275905222721     -1.08462566033743
  H           2.80973527941122      0.46658591618410      0.16680201570527
  Cl          2.90654649052688     -2.02563221184729      1.27593726788576
  C           1.95049222796428     -4.90953762164703     -1.58727413710500
  C           1.94252579198277     -3.58746822153043     -1.62236534849850
  C           0.71826545322133     -2.75784227270185     -1.39844216959227
  O           0.72763499948739     -2.13309876654193     -0.09844415168060
  C           3.16518266585530     -5.75407366032991     -1.79316657884027
  H           1.04639746475991     -5.47494756573299     -1.40898096579865
  H           2.86076260986317     -3.04151461814577     -1.79135044429389
  H          -0.18379338619461     -3.37107421510197     -1.38310937069072
  H           0.63168644913919     -1.98824332866422     -2.17330818379534
  Cl         -0.66185863819885      0.30168991814653     -0.95624094316104
  Cl          1.21746129562335      2.46502013987175     -0.71714434308946
  Cl          1.56337323829062      0.49871008103025     -2.80082183420788
  F           4.28031265333623     -5.00275971707576     -2.05408011692439
  H           3.03017045743231     -6.43038391809353     -2.64682455994549
  H           3.38233653174772     -6.34570027554185     -0.89467627192299
