20
Coordinates from ORCA-job NEB_product E -45.519034103640
  C           2.50582135149871     -1.68224151340629     -0.56802459696179
  C           1.36363393714145     -1.36444015614082      0.37495412114839
  C           2.71003407961890     -0.51503090397911     -1.53810269183980
  H           3.43123645989707     -1.76679095888944      0.01140052607783
  Cl          1.60734566626328     -2.14342177270831      1.94002005330863
  C           2.18987115580011     -3.10130943700800     -1.14435106378457
  C           0.83104464035791     -3.19973571355122     -1.78821045199524
  C          -0.24950023344599     -3.59720945988935     -1.14443569742501
  O           0.38443753500862     -0.74003472721071      0.16889957818786
  C           3.26543092299211     -3.64334386457173     -2.09132878656251
  H           2.20287285327119     -3.75361126945512     -0.26320792652087
  H           0.78748353375016     -2.94820089187824     -2.83650668377112
  H          -0.23178321278154     -3.86465326031500     -0.10003900897245
  H          -1.20351183227420     -3.66460724662240     -1.63624600636255
  Cl          1.40869485521595     -0.30989195560085     -2.70293474238457
  Cl          2.81282381151727      0.98598128131052     -0.54609003352795
  Cl          4.26104807829955     -0.65283740551953     -2.38983541690891
  F           3.14394989336106     -3.13192400826453     -3.35367462811954
  H           3.14295203817871     -4.72744749835125     -2.19007444729667
  H           4.27601446632966     -3.40874923794862     -1.74381209628915
