23
Coordinates from ORCA-job NEB E -53.546006145400
  C           0.50721583778658     -0.14614356710142      1.48596455887983
  C          -0.11080242153140     -0.48340778601770      0.18664739677067
  C          -0.21080472750974      0.68521821406699      2.46170928252997
  H           1.46741503222007     -0.55883330654835      1.73646906238923
  C          -0.19380107769213     -2.04219200606596      0.08995119808026
  C           0.65412447144252     -0.00015561733385     -1.09343442306762
  C          -0.46693996216400      0.32622176628327     -1.99992199061213
  C          -1.73908752818052      0.32136295257222     -1.25741894957634
  O          -1.41875792612352      0.02758796222060      0.09479361748242
  C           1.55287312780582      1.22988273140313     -0.84320382661594
  H           1.32587134154599     -0.78178715954333     -1.46987019650832
  H          -0.35663818739997      0.66111534339122     -3.00907542061810
  H          -2.44750968291972     -0.43102835113626     -1.64615934354221
  H          -2.25617476318749      1.29218911212978     -1.27059421973338
  F           0.46266431430889      0.75040825800200      3.64771967319761
  H          -1.21524143314185      0.28464017989451      2.67190017859984
  H          -0.33447350163735      1.72120584086208      2.10347108877965
  F          -0.93562438685936     -2.55348963825998      1.07159961590657
  F          -0.73614743177334     -2.46024484155135     -1.06378995887231
  F           1.01699154481132     -2.61144137482075      0.16572264088531
  F           0.89058487641005      2.19785371852824     -0.17407426358103
  F           2.63251163340145      0.91128375026180     -0.09729743321240
  H           1.91175085038770      1.65975381876314     -1.79110828756158
