23
Coordinates from ORCA-job NEB_reactant E -53.622000128690
  C           1.98870087408313      0.10818344661061     -0.27048921361551
  C           1.53616274715358     -0.67597128572832     -1.24450360078043
  C           2.01077495230447      1.60091636134856     -0.16191717006513
  H           2.40645484473803     -0.37884967636253      0.59878751254211
  C           1.60358933370735     -2.18794215687187     -1.09139524058571
  C           2.70693090420209      2.50391813459610     -3.71257271343284
  C           2.34083117153970      1.25476682460963     -3.47880820033177
  C           0.96829269640227      0.85063386189663     -3.03077215770666
  O           0.94296220291827     -0.43365098737835     -2.44273056886552
  C           4.07608764365649      2.89325353841141     -4.18358198853149
  H           2.04238121758168      3.34305646261962     -3.56484603422227
  H           3.03294935384579      0.43823525226855     -3.63578001630932
  H           0.32371998284025      0.73713750365712     -3.91039684001278
  H           0.52198794151807      1.60253990621092     -2.37177290343977
  F           2.72078573410130      1.95622270921817      0.95376250504634
  H           1.00381194238444      2.01558308601743     -0.02256410208281
  H           2.50564895362806      2.08539665772382     -1.01121765763641
  F           0.38620727195051     -2.74436016188899     -1.13479250421428
  F           2.31816547681401     -2.74583792672062     -2.07755344511353
  F           2.16289172952675     -2.57885350596651      0.05759323720557
  F           4.61639214269815      3.81320438674768     -3.34155760801783
  F           4.92785250610566      1.84509878721697     -4.20293287346687
  H           4.06881837629995      3.34141878176397     -5.19245841636308
