17
Coordinates from ORCA-job NEB E -29.550068020900
  C          -0.02647810744406     -1.40546459022215      0.46304029933713
  C          -0.98498093701785     -0.90680308646297      1.33760357845082
  Cl          1.60055735835814     -1.54665659181859      1.06708958145140
  H          -0.28666525736534     -2.23347621942231     -0.18549442132572
  Br         -2.83306311766366     -1.29089411581416      0.75143410449732
  C           0.08356153869059      0.19016939095490     -0.76635249367147
  C           0.33397741776979      1.19125099691154      0.16537707989910
  C          -0.65866669762062      1.51400505217172      1.12117144861453
  O          -0.82919013256988      0.12082783036396      2.04577557167833
  C           1.12312131888258     -0.18620879852995     -1.77958155999048
  H          -0.93645571348709      0.09258337480961     -1.12794106825806
  H           1.36225654813678      1.43162456915927      0.39606118158372
  H          -1.68211531915039      1.59946795113482      0.76581447976022
  H          -0.40732872201384      2.23874720353346      1.88367589648476
  H           0.92368451213501     -1.16690308881978     -2.20334132808715
  H           2.11794370612779     -0.18220161544232     -1.34258945042987
  H           1.09984160423206      0.53993173749295     -2.59174289999460
