17
Coordinates from ORCA-job NEB_reactant E -29.573612773210
  C           2.08523165521353      0.01740036970399     -1.20696392919143
  C           1.05745095291521      0.80902827221210     -1.49511190181867
  Cl          3.68258941137129      0.53010006049962     -0.79104251741725
  H           1.96745734013589     -1.05264973833047     -1.22194297898402
  Br         -0.58788694920069     -0.05285240721106     -1.91102187094788
  C           2.63054625337501      2.25395369897852     -3.82671546336616
  C           2.90604718175527      2.87672169255344     -2.69321989092420
  C           1.96083190099908      3.02318490491542     -1.53635028102249
  O           0.85971531950440      2.12382251308060     -1.56867058321861
  C           3.58345242444001      2.11112215571247     -4.96250877060452
  H           1.65921439916959      1.80091298799787     -3.98103227489492
  H           3.86978346738303      3.34006252726833     -2.53571085217591
  H           1.48661620014886      4.01119797426818     -1.55852272507556
  H           2.50055731969204      2.92440833558562     -0.58795835670179
  H           3.76680865865574      1.05643032555261     -5.16603759736951
  H           4.53014144810547      2.59804413182140     -4.74325520863381
  H           3.15784301633626      2.55021219539136     -5.86403479765327
