16
Coordinates from ORCA-job NEB_product E -22.211110714840
  C           0.84223682837072      0.11299025299404      1.22090059378107
  C           1.66542951764780      0.92462632658331      0.26790801201233
  H           1.47064645233386     -0.70116753739561      1.59395180110705
  H           0.01783766822572     -0.34631641044139      0.66885857640084
  H           1.94520324833801      0.36189396148917     -0.64727291395022
  C           0.32028563980347      0.92338843121419      2.41447123086724
  C          -0.77820182033396      1.85463034508432      1.97567974874955
  C          -0.73257232368127      3.16799247999305      2.08722518400793
  O           2.02466220249571      2.05563738220856      0.42799949064974
  N          -0.10930797615201     -0.01237430212104      3.45075350660527
  H           1.15096690256340      1.50708591993242      2.82447248974446
  H          -1.65804937559122      1.36385425729747      1.57371048167390
  H           0.13695459641233      3.66840507497071      2.47867163631770
  H          -1.54942780759359      3.79755034479870      1.77625324709905
  H          -0.92268488487366     -0.53218570420731      3.13380609500668
  H          -0.37847886796531      0.49508917759941      4.28651081992741
