22
Coordinates from ORCA-job NEB E -28.513449927300
  C           0.12473690498817      0.72023994365499     -0.75670813813863
  C          -1.13378674112907      0.75887345084806     -0.13505389436212
  C           0.30128999117099     -0.06111700380211     -2.03182396493661
  H           0.70062909658866      1.64056623552772     -0.73605809430238
  C          -1.46201175467906      1.88336645449859      0.81892204713055
  C           1.07100588676879     -0.37994018228724      0.57540501610752
  C           0.26944879239463     -1.53777479561607      0.59384140895345
  C          -1.05786651006577     -1.45294519475177      1.01945477777307
  O          -1.83524550097767     -0.31566000815452     -0.07753245289669
  N           2.37975530597522     -0.42754828677585      0.07738399072481
  H           0.95362891202864      0.32052616659819      1.39669342170784
  H           0.54266081511135     -2.33457270520641     -0.08529599649793
  H          -1.27128111145517     -0.88780030011741      1.91875252950119
  H          -1.68762720180645     -2.32126114588361      0.89468276612658
  H          -0.35477077207108     -0.92700621333966     -2.03631562041945
  H           1.33408156666427     -0.37798295760595     -2.15197022405696
  H           0.03953917624347      0.57489132213062     -2.87769360120089
  H          -1.17331642317979      1.60360536307571      1.83533692624869
  H          -2.53511845030585      2.05930516785293      0.81891786343524
  H          -0.94392172541291      2.79755437932104      0.54545652688803
  H           2.65665341645318     -1.33476774960918     -0.26559478062087
  H           3.08151632669545     -0.00055194035807      0.65919949283554
