22
Coordinates from ORCA-job NEB_product E -28.552535915120
  C           2.66554970153750     -0.35158744296104      0.90022006447262
  C           1.24899721795952     -0.04736881488830      1.36129438753406
  C           2.65340161501014     -0.89201224359286     -0.52763523621150
  H           3.27391621135875      0.55548815065340      0.95187476154448
  C           1.12862486466424      1.14658954334368      2.27423389372958
  C           3.28117197319009     -1.34667655272324      1.92433474432098
  C           2.68838510261358     -2.72173151837105      1.78047962121571
  C           1.79694269402846     -3.23352209973882      2.60720343104594
  O           0.30116562479493     -0.71310619796179      1.03155795880600
  N           4.73192798126672     -1.31533931638424      1.78668276746618
  H           3.05900451469301     -0.97011030966402      2.93117792598805
  H           3.05770082266725     -3.30138978822600      0.94417751702457
  H           1.41618846914501     -2.67488600961015      3.44653905986369
  H           1.39705098156313     -4.22416401611467      2.47391607925232
  H           1.93781024272384     -1.70606867491470     -0.61002323900713
  H           3.63829539238933     -1.24222072944455     -0.82575199963440
  H           2.35127041146659     -0.10346280213778     -1.21376184909761
  H           1.92214441253822      1.14593482199623      3.01677586386982
  H           0.15642573900461      1.15693691768578      2.75985828992811
  H           1.23082839361266      2.04910393459742      1.67325608036150
  H           5.00662639128847     -1.68578479930552      0.88262538858733
  H           5.15957124248395     -1.89842205223778      2.49786448893971
