23
Coordinates from ORCA-job NEB E -32.474875707150
  C           0.05441543053879     -0.95300248660251     -0.41361946562038
  C          -1.21204802750291     -0.42525797463736     -0.69010464756930
  C           0.20194655242128     -1.90086524924648      0.74836488968299
  H           0.64317802962922     -1.23729351685787     -1.28061690948117
  C          -1.53348816416273      0.12962928271933     -2.06242148414043
  C           0.89237718742071      0.69878579288865      0.17865519153012
  C           0.06499674648860      1.07609664995939      1.23686361510087
  C          -1.29768749942786      1.37188153090274      0.95845569714578
  O          -1.94292091875001      0.02589756775319      0.29314662352795
  C           2.34094008377626      0.38329744036465      0.44184349209463
  H           0.75689586575788      1.23500485866898     -0.75711117338345
  H           0.31962050421840      0.73988182469871      2.23172539756782
  H          -1.48331314536231      2.08460560986557      0.15755427876022
  H          -1.94457775830555      1.53714741691926      1.81120237363733
  H          -0.43761247741716     -1.59594341184804      1.57180364485976
  H           1.23102715747220     -1.96378484653022      1.08816025552525
  H          -0.10574274388849     -2.89528999815821      0.42507312720301
  F          -0.70956785429139     -0.37896010612557     -3.03257946226822
  H          -1.41212484271755      1.22387738402674     -2.08194299788907
  H          -2.56296620358096     -0.11844544845133     -2.34225589649845
  H           2.47468757828542     -0.09065535160879      1.41060867083528
  H           2.90946528769954      1.31308047676200      0.43943439626259
  H           2.75249921169861     -0.25968744546284     -0.33223961688314
