23
Coordinates from ORCA-job NEB_product E -32.511516131390
  C           2.84583562367679      1.14672002142075      0.05680522878158
  C           1.41731728110283      1.34254474009284     -0.42025062663968
  C           2.92296517848799     -0.09278265057445      0.94461862626203
  H           3.50334358746682      1.02586057284297     -0.81071864373637
  C           1.33085722600161      1.86674532280009     -1.84978510723574
  C           3.26383269557314      2.45691051722575      0.78548035661522
  C           2.49796101831722      2.63426883078198      2.06283963492025
  C           1.48657483258672      3.46833724092138      2.20881842665277
  O           0.44921856031221      1.12875811808910      0.25355475261795
  C           4.76913015858982      2.48224459153330      1.05082000563713
  H           3.02247181025690      3.29213892383942      0.11725335285978
  H           2.82705815249440      2.02418264016479      2.89229693596765
  H           1.13624116429311      4.08802395529992      1.39938862672304
  H           0.95674974032352      3.56273325405991      3.14070488408225
  H           2.16128538945901     -0.04131442752324      1.71756747928641
  H           3.90105723425205     -0.18399822172563      1.40728900531090
  H           2.74210381123931     -0.98421314593549      0.34757720414834
  F           0.06407963744833      2.25571714874725     -2.17811685331203
  H           1.61848963227228      1.06968067024943     -2.54666290649390
  H           1.98713593547004      2.73278521655556     -1.98990398013889
  H           5.05829856187145      1.69873087143354      1.74588932980686
  H           5.04622407603654      3.43946179160328      1.48640946271516
  H           5.32626869246790      2.34976401809754      0.12582480516929
