25
Coordinates from ORCA-job NEB_reactant E -35.931790863280
  C           2.47292993169095      0.04569738152709      0.21331700017581
  C           2.02704513530953      1.28710293668715      0.06631304585979
  C           2.12599837760950     -0.87369412982723      1.34139736688334
  H           3.12549842946358     -0.35615404822065     -0.54765898284045
  C           2.35594218719857      2.15939318373860     -1.12163021763450
  C           2.56624563947564      4.76321838577915      1.99426749339400
  C           2.80911630029689      3.45611303885586      1.91003830752959
  C           1.76551602020770      2.41243345159573      2.15000049137756
  O           1.16753144976093      1.91934391768682      0.94349315761355
  N           3.51086827738709      5.75616758447208      1.85864120779398
  H           1.58255036372895      5.11994107078762      2.26855821017137
  H           3.79272226431416      3.10068959604577      1.63404079759903
  H           0.92248100335550      2.82796029004446      2.70615325251335
  H           2.19563911720078      1.57477482390487      2.71354156341876
  C           1.80424800173914     -2.27379770916548      0.82496551464243
  H           1.26722292712365     -0.47619027662112      1.88523781194672
  H           2.97269036708675     -0.93638347652575      2.03368934173520
  H           0.95855846542648     -2.23908060536630      0.14226184793658
  H           1.55451758363935     -2.93491830417728      1.65169455974066
  H           2.65768144410722     -2.69059815541993      0.29462031770666
  F           3.23421032111564      1.56001871349847     -1.98675255496941
  H           2.81371001122743      3.09952000211071     -0.79011322223899
  H           1.44275003403089      2.38343086384295     -1.68571370058152
  H           4.37929450371276      5.47638104576139      1.42876076611134
  H           3.17813184379093      6.66023041898502      1.56727662411517
