25
Coordinates from ORCA-job NEB_product E -35.928973374370
  C           2.53706255527103      1.24629240506697      0.37623569503564
  C           1.28927104584322      1.46214575449032     -0.45889699600660
  C           2.39239959280559     -0.05644899282553      1.17242499675694
  H           3.41242409401973      1.18686491576492     -0.27733020292705
  C           1.59049317287188      2.04652042594819     -1.83419805128414
  C           2.71275005132376      2.54286629341261      1.22834710099028
  C           1.94917835132946      2.47208943631417      2.52351330974474
  C           0.76866340778913      3.03025562859446      2.71240972350737
  O           0.17712796830940      1.21904484975741     -0.08100216807358
  N           4.13557494186322      2.80987267493002      1.37886525246484
  H           2.30901464226113      3.37985840315069      0.64243078853346
  H           2.44034788182592      1.94125263205915      3.32913186182140
  H           0.26078749709526      3.56203738130484      1.92527200062184
  H           0.25137470964337      2.96346024007649      3.65435045089457
  C           3.65932345787630     -0.48479616530806      1.90199751740270
  H           2.11957193654703     -0.84120082201549      0.46197811352663
  H           1.56448399473099      0.04557427891350      1.87482178912342
  H           4.51071755653795     -0.48583308674062      1.22440193072620
  H           3.53483483852831     -1.49086385355174      2.29599737809387
  H           3.88228289557928      0.17147664481908      2.73925536130730
  F           0.46140715370310      2.48868701397904     -2.46343137226656
  H           2.03195097789102      1.26654887207746     -2.46679321463986
  H           2.28084240375351      2.89306872907851     -1.75713766790842
  H           4.57428635059055      2.09585363508808      1.94950471257555
  H           4.27612852200986      3.70397270561552      1.83615168997945
