22
Coordinates from ORCA-job NEB E -32.559845605430
  C           0.86002198915474      0.10891130537453      0.67503265817992
  C          -0.50780084259185      0.37955673318078      0.59562077194973
  Cl          1.99781771812743      1.40331031333203      0.96930535390314
  H           1.18475445248451     -0.80181178603303      1.16479267692460
  C          -1.46106136085003     -0.76698680500846      0.87981393156074
  C           1.22609976214550     -0.24060751043983     -1.30971662066623
  C           0.74782569510886      0.97360068484968     -1.82979824625037
  C          -0.60346545799464      1.28438465738181     -1.76204257579123
  O          -0.93199964411721      1.43097750803788      0.01614725995799
  N           2.56869996161747     -0.54366390387987     -1.40682622686745
  H           0.58302499963753     -1.11170597034356     -1.38011273226840
  H           1.45983943627062      1.78104114499024     -1.92534780535820
  H          -1.32999784261210      0.49922019064174     -1.92142073419935
  H          -0.92633457751545      2.26436864589953     -2.07523685257026
  C          -1.81836906284183     -0.79637542572537      2.36606765892159
  H          -1.00585959373826     -1.71821776535647      0.59450610918176
  H          -2.36770425185170     -0.61553066552329      0.29194503726335
  H          -0.92351600528379     -0.92886809864411      2.97020184270182
  H          -2.50396986128457     -1.61421421090076      2.57551841348923
  H          -2.29219535301849      0.13822212193406      2.65538007843739
  H           3.17857995382909      0.24443993208540     -1.23375512283426
  H           2.86560988532421     -1.37005109585294     -0.91007487566552
