22
Coordinates from ORCA-job NEB_reactant E -32.592819784050
  C           2.33173602812924     -0.88409298089149     -0.50057522791050
  C           1.47804696220463     -1.61718409881699     -1.21426949979355
  Cl          3.27431724669092      0.49080651637984     -0.98973316126402
  H           2.50291989239518     -1.12785859276280      0.53393295628259
  C           0.73685038362686     -2.73651484148560     -0.51434349925024
  C           3.20225160571351     -1.71948220088712     -5.07334851538002
  C           3.00790019319261     -1.12391761763321     -3.89882942225605
  C           1.66780759223762     -0.64779368483222     -3.43847160450914
  O           1.06661948200814     -1.53760591331777     -2.49485023199297
  N           4.39075058493708     -2.28097541516394     -5.49015659565722
  H           2.38396573986058     -1.84784728913028     -5.76967449672141
  H           3.82708896164522     -1.01282387733018     -3.20413356214821
  H           0.96177288086641     -0.64573236956840     -4.27360985398093
  H           1.72691385439694      0.36064204184453     -3.01915849851411
  C          -0.63316973618427     -2.25732060357472     -0.03641534505401
  H           1.32007287948859     -3.09994929723595      0.33072700528634
  H           0.60651704465559     -3.54894519138988     -1.22981070339418
  H          -0.52207256042584     -1.44993131963110      0.68327119832180
  H          -1.17445731292285     -3.07364884395856      0.43547561992468
  H          -1.21586318474478     -1.89387665256136     -0.87851044779779
  H           5.19845813557822     -2.02246411742474     -4.94345302873500
  H           4.55757332665042     -2.28748365062806     -6.48346308545606
