26
Coordinates from ORCA-job NEB E -52.848248122840
  C          -0.50325080479817     -0.30904418819701      2.02438276182102
  C          -1.27633304745715     -0.21722001977288      0.93056253016727
  C           0.11690813296754      0.78718982016622      2.78821415141015
  H          -0.27708391328432     -1.27522976302545      2.45359548214676
  C          -1.89996829372003     -1.48507415758749      0.38301174079478
  C           0.75523127987959      0.72632752377140     -1.08236852694369
  C          -0.43876506809725      0.97116955912537     -1.59828365217007
  C          -1.62977586983734      1.46339447605804     -0.83024429069902
  O          -1.71580381325376      0.98002974484496      0.52108049253667
  C           1.91135195509322      0.16896342884761     -1.84161848698628
  H           0.95404275371711      0.90418369719499     -0.03454978692908
  H          -0.61739331031229      0.81446509311837     -2.65259825244152
  H          -2.55886341635356      1.23404045274825     -1.36134358586081
  H          -1.57795356192177      2.54977659884924     -0.69208316198839
  Br         -0.56265015774705      0.71959034570651      4.65435309461153
  Br          2.07060106112093      0.43674135146143      2.85725008709483
  Br         -0.10982696216554      2.59473577617848      2.15724509708062
  Br         -0.85431937067641     -3.08681776303096      0.75306023557277
  Br         -3.65522125232103     -1.65664018900708      1.30355220244386
  Br         -2.25431732715600     -1.55681222746693     -1.52289516065812
  C           2.35093910200477     -1.16877169305474     -1.24453250190212
  H           2.74400077617238      0.87407764554364     -1.78140849762460
  H           1.64242669743878      0.03968735600197     -2.89088370197091
  H           2.62800416795045     -1.05089600063812     -0.19890175926441
  H           3.20991101316397     -1.55759456200311     -1.78412124127816
  H           1.54810922959293     -1.90027230583268     -1.31047526896312
