26
Coordinates from ORCA-job NEB_reactant E -52.855245353210
  C           2.09922178904983     -0.19948124388059     -0.45399138705913
  C           1.39069962470146     -0.16457775002466     -1.58909019274285
  C           2.53360781118439      0.94441811329901      0.36715460089127
  H           2.38766482011013     -1.16612653798785     -0.05949003738161
  C           0.94861565033178     -1.47985043142821     -2.19795822699146
  C           3.94433547679127      0.83424897582446     -4.01599323109841
  C           2.62759736286412      0.97504461930067     -4.01003373337768
  C           1.88480204113842      1.74204922591854     -2.96402108465579
  O           0.94138835450531      0.90921502390072     -2.25314882223844
  C           4.71905544839424      0.09492722965058     -5.05430987073334
  H           4.54040707888889      1.29474816997523     -3.23750642143959
  H           2.01639616909537      0.52485368623245     -4.78086313324817
  H           1.24102493304164      2.50435962945646     -3.40832742720118
  H           2.58369907027024      2.21914733067421     -2.27201484543310
  Br          2.64702474005641      0.38935312043407      2.24821966053610
  Br          4.36246230584206      1.53704929281033     -0.16312294627689
  Br          1.33635958219542      2.48105091539813      0.28897422788614
  Br          0.08646884597074     -2.64215208388726     -0.88146560534908
  Br         -0.29013742490317     -1.17727097571213     -3.64305489911498
  Br          2.51568154606108     -2.42481042444876     -2.90730850383363
  C           5.77424411674542     -0.81296923067042     -4.42640826732191
  H           5.21964458257748      0.82940856933902     -5.69261465740023
  H           4.04426050912524     -0.48995237112685     -5.68106911395418
  H           6.45168546032878     -0.23545327442628     -3.80188597674157
  H           6.35417141629333     -1.30646032804688     -5.20146823336979
  H           5.30291868934012     -1.57696925057400     -3.81260187235053
