16
Coordinates from ORCA-job NEB_product E -29.106109608400
  C           1.44878269478051     -1.51111722969688      1.50505155052776
  C           1.02567289222031     -0.15027505577480      1.08165835134696
  Br          0.56038792325480     -2.81317031496089      0.34369978977824
  H           2.52183750872856     -1.65967865416770      1.36745252275856
  I           2.36102651164263      1.37207941591528      1.88352386330298
  C           1.09975583886134     -1.76951450589391      2.99232502859405
  C          -0.37891154364663     -1.59315754184124      3.22492201323806
  C          -0.89563840024152     -0.60473510217308      3.92943265594703
  O           0.10325242629845      0.17488914731444      0.42774456873372
  N           1.62300690835616     -3.07118114788872      3.35144485279916
  H           1.65317264817159     -1.02696276488156      3.58221087132977
  H          -1.01051796675274     -2.35143799044026      2.78037422331825
  H          -0.27972991252779      0.15676249484691      4.38124311791236
  H          -1.95673170628854     -0.51322267685627      4.08323047085481
  H           1.10646790030212     -3.81115426838943      2.88544636260157
  H           1.55956627684075     -3.21952380511187      4.35063975695672
