16
Coordinates from ORCA-job NEB_reactant E -29.098373493790
  C           2.04926378125572      0.05571341713216      0.17397792010841
  C           1.08739065871348      0.20513850149895      1.07511362848320
  Br          2.81736346566409     -1.64495398647410     -0.13131952737642
  H           2.43318703830208      0.84702431526999     -0.44216385421195
  I           0.33004168539646      2.20048565237519      1.34215627743160
  C           0.56335529679303     -2.74032967348837      4.38526513396912
  C          -0.22471331042772     -1.94442076168316      3.66112058927340
  C           0.22861713282083     -0.62921316539553      3.13540678789184
  O           0.51745768685815     -0.78284728011484      1.73338183575067
  N           0.17919362889491     -3.92991740702546      4.94702386803011
  H           1.56443647723117     -2.42540946572688      4.65006584112684
  H          -1.21859466215472     -2.25768546828722      3.38102339777259
  H           1.13471102999822     -0.29233388211240      3.65280877597133
  H          -0.55336574590804      0.13445955063900      3.24291398101617
  H          -0.66395255761627     -4.34027075767482      4.57684178869531
  H           0.90690839417858     -4.58993958893251      5.16328355606782
