21
Coordinates from ORCA-job NEB E -33.813636363060
  C           0.52949455395998      0.90235973213007      0.25268330473351
  C          -0.22178816100779      0.13579945791661      1.15005646545382
  C          -0.03710380933599      2.18604379829010     -0.29340112388820
  H           1.59536197538620      0.94712131618868      0.45193399305261
  C           0.50156137228127     -0.83727983457177      2.05880671723942
  C           0.36396595139945     -0.33418064407669     -1.34300499559401
  C          -0.61385082542208     -1.29840618287056     -1.05825982525833
  C          -1.84856799515442     -0.82610017752837     -0.58332764567827
  O          -1.46723730168121     -0.11146403733817      0.94166831976176
  C           1.69734420313255     -0.77135541782156     -1.55769577353356
  H           0.06878468892942      0.49537623204088     -1.97355221615979
  H          -0.28526083262449     -2.28015076636672     -0.73982261312677
  H          -2.59180265079503     -1.54806512672500     -0.27525678412698
  H          -2.26952491833868      0.04843394271419     -1.06507670759612
  H          -1.09851324775566      2.09325801073849     -0.50946805057871
  H           0.49605813163228      2.51623248819607     -1.18237263984971
  H           0.08373301028744      2.95805619134581      0.46731817117906
  F           1.72103721413173     -0.36001563437628      2.45209578181982
  H           0.67801894337257     -1.78440339102834      1.52537881519653
  H          -0.08961316515104     -1.03143394483157      2.95904308837655
  N           2.78790286275350     -1.09982601202586     -1.67774628142262
