21
Coordinates from ORCA-job NEB_reactant E -33.849953914990
  C           1.99585351787856     -0.28517910014472     -0.17642106635877
  C           1.47671894309440     -1.48472339176792      0.05991810937545
  C           2.27181363111272      0.42521640558008     -1.46491265006918
  H           2.28054632735659      0.27079186595600      0.70535674055661
  C           1.34743456646902     -2.03620313505651      1.46355659748859
  C           1.37410667398969     -1.83441430922642     -4.39860083606658
  C           1.52579573543935     -2.27378098794229     -3.14929272620412
  C           0.50136036180887     -2.09297609650256     -2.07060192640290
  O           0.97742069580559     -2.44385413556504     -0.79062189215055
  C           2.34242387446996     -2.05263018101898     -5.39659917928913
  H           0.49702447796197     -1.28059195604524     -4.70892434050118
  H           2.40816688038637     -2.83060539626324     -2.86260964514362
  H          -0.32601209466083     -2.79215179934525     -2.26108530289183
  H           0.09037707618356     -1.07701920643260     -2.07457379575803
  H           2.41529998858304     -0.25800489311675     -2.29724038691874
  H           3.17784491490912      1.01741384538797     -1.35273434000771
  H           1.46182333076829      1.11423412494962     -1.71099779475365
  F           2.01631076699356     -1.28188129466117      2.38566988643068
  H           1.76283574815176     -3.04908414490477      1.50033783015010
  H           0.29513017307902     -2.06453917542251      1.77131852407484
  N           3.12472441021938     -2.22481703845771     -6.21704180556027
