21
Coordinates from ORCA-job NEB_product E -33.861262327530
  C           1.81784806957656     -0.69488046670976     -1.17398528316307
  C           1.83616679257091     -1.76347616850156     -0.08487651912082
  C           0.55218232601780      0.15064979982805     -1.04670427876117
  H           2.70627348948307     -0.06184742076701     -1.07779413488386
  C           3.18867796169221     -1.92031433779510      0.58991539194659
  C           1.86410787472483     -1.37177875113790     -2.57311706023021
  C           0.68205890718931     -2.26654623562257     -2.84200016006366
  C          -0.08525667201052     -2.14622033878683     -3.90797690606081
  O           0.87756862966949     -2.42260984571566      0.20526882133623
  C           3.07635974480698     -2.14865527012881     -2.69577975439997
  H           1.90143536724498     -0.57988768740056     -3.33236524052626
  H           0.49816330846155     -3.03266309524590     -2.10299852983630
  H          -0.91900812147841     -2.80466011047105     -4.07780767582852
  H           0.08528372184247     -1.38963409010476     -4.65756413328463
  H           0.49192725193190      0.87335117556025     -1.85700488423235
  H           0.55385057204513      0.68736124697162     -0.10092720950771
  H          -0.32568931659029     -0.48985099206433     -1.07884212964463
  F           3.15282409411145     -2.86879850800254      1.56893036627850
  H           3.49105964612685     -0.97632604421167      1.05944229125223
  H           3.94178824423548     -2.22802879913315     -0.14669130970220
  N           4.04027810834824     -2.75678406056077     -2.78582166156741
