19
Coordinates from ORCA-job NEB E -42.639510407980
  C           0.19032046590503      0.65072750191410      1.18224979837518
  C          -0.69085170940452     -0.37193866539551      1.58040540594854
  C          -0.37738188233733      1.88554721255280      0.78700559019969
  H           1.12106747509704      0.72866475715147      1.73144695910843
  O          -0.19951180392877     -1.29472196406404      2.43712188839238
  C           0.67270539437215     -0.18059423925637     -0.62084088911200
  C          -0.58327385036245     -0.27315641055459     -1.21510152789337
  C          -1.52437154088844     -1.15236023729294     -0.64374110587707
  O          -1.78307057044512     -0.60678946274414      0.97008652906654
  C           1.75006345607881      0.65635273151311     -1.24776360170398
  H           1.09562963787948     -1.07962616582920     -0.18036653435886
  H          -0.94118833592616      0.55985733391400     -1.80019878382944
  H          -1.18783609199789     -2.15188509715313     -0.39026010777299
  H          -2.53570744978681     -1.11752514575599     -1.02222411096730
  N          -0.85412001346245      2.88137198036667      0.48474120574933
  H          -0.84965275190661     -1.99948121522539      2.57064072107852
  Cl          2.44683241069995     -0.31858728698348     -2.58849834672461
  Cl          1.17594734789055      2.18603247943574     -1.92471030983248
  Cl          3.07439981252353      0.99811189340686     -0.10999277984653
