19
Coordinates from ORCA-job NEB_reactant E -42.676170196930
  C           1.63847090695149      0.51330863364807     -0.70183027785312
  C           1.60113832880576     -0.82640473760773     -0.56961862232108
  C           1.48786051705716      1.25979169911179     -1.86950275051539
  H           1.77168634265219      1.08602552759155      0.20391363831864
  O           1.71277502042207     -1.36530603396465      0.65334666557583
  C           3.19558845086043     -0.20791707835101     -4.19221258296469
  C           2.89427702829447     -1.16092045870212     -3.32580486805773
  C           1.49679106988917     -1.47660883513465     -2.88526556457787
  O           1.44379147842870     -1.78958312579505     -1.50276678311585
  C           4.56533047283053      0.12985163266203     -4.65561619083847
  H           2.42984464827836      0.42793809852186     -4.61487414154997
  H           3.66168254901103     -1.78288277257883     -2.88584347834442
  H           1.16022891483891     -2.39681255535349     -3.37570961448784
  H           0.80555031148919     -0.66647503946312     -3.13147896448495
  N           1.36054596365871      1.92501221670136     -2.79902689887543
  H           1.66270236846472     -2.32888649962951      0.58317092746963
  Cl          4.93651782321403      1.81326559487131     -4.18091119635847
  Cl          5.82257196770857     -0.92299871847882     -3.99619413681492
  Cl          4.62864583714451      0.02010245195098     -6.43837516020386
