17
Coordinates from ORCA-job NEB E -25.214995890100
  C           1.08422394436609      0.22473937138938     -0.38531287833269
  C           0.53732010290640      1.41908744813613      0.10769326203033
  C           0.61453332156518     -0.26547364618317     -1.73223128486227
  H           2.15064330321942      0.08907477866595     -0.22295454153526
  H           1.08164208178207      1.97507632990292      0.87784561682598
  C           0.26317306032055     -0.92184153016043      0.89120451645825
  C          -1.10368496601768     -0.71024319750055      0.70217075243607
  C          -1.57767956041090      0.60571137487127      0.97627245115882
  O          -0.74490895456032      1.61071045176391      0.01789968908861
  I           1.02137077453008     -2.89235636280439      0.58510989396920
  H           0.71862224433695     -0.52819176739620      1.79066563899343
  H          -1.63266696112326     -1.30724320835657     -0.02550890832553
  H          -1.32799360913327      1.00991423025955      1.95487033176969
  H          -2.60571819022344      0.80890109745608      0.70057075261448
  H           0.75411140545401     -1.33673874916445     -1.85316923389316
  H           1.19981142531088      0.23492626080097     -2.50308786675579
  H          -0.43279942232274     -0.01605288168040     -1.88203819164015
