17
Coordinates from ORCA-job NEB_reactant E -25.248488780640
  C           1.76594637984676      0.01590493189457      0.01164130432211
  C           1.14175180692486     -0.20242109545035      1.16034611291272
  C           2.05058391682237     -1.03614645008957     -1.00843021632311
  H           2.09015324459880      1.02053629325729     -0.21150367946758
  H           0.95820051655465      0.59617964675031      1.87082461944482
  C          -0.17706352933340     -3.65543485896344      4.04730330701734
  C          -0.42711330082321     -2.90623490577049      2.99286432614571
  C           0.13036230643092     -1.52759447220536      2.81725578361186
  O           0.67986365858195     -1.43892454094534      1.52329325162424
  I          -0.98874736308897     -5.57499181452406      4.30948628333189
  H           0.44374495412911     -3.34134641515726      4.86942836421230
  H          -1.04416379128386     -3.25350422456572      2.17748235871128
  H           0.89347796032550     -1.31550660678699      3.58086167996778
  H          -0.68593049661369     -0.79421978416559      2.93243250153586
  H           1.70568993414862     -2.00286492117217     -0.65469156895448
  H           3.12022016709680     -1.08886596006102     -1.20919373305378
  H           1.54802363568279     -0.80026482204482     -1.94620069503897
