20
Coordinates from ORCA-job NEB E -29.143633781560
  C           1.07368759546954      0.19847171388967     -0.59605314584271
  C           0.41208814967740      1.19036725460904     -1.30804434134197
  C           1.01800876359460     -1.21031169017947     -1.12440959993897
  H           2.02833190864590      0.47116984554333     -0.15981215310447
  Cl          0.91927307325728      2.86290643950764     -0.96396205170237
  C          -0.15793143183907      0.20082689250515      0.98805733208566
  C          -1.38568470564952     -0.01038622479281      0.37604133813332
  C          -1.87734161602608      0.97541089747610     -0.52343220141566
  O          -0.77530859131212      1.04562896453711     -1.74501731196115
  C           0.39714914208448     -0.81384679185983      1.94720309130655
  H           0.08251979902486      1.22342548847106      1.26373901967336
  H          -1.74607541476934     -1.02398365507322      0.27107767517853
  H          -1.83580179801371      2.00654936953468     -0.18212223116214
  H          -2.79086034621839      0.74571074623105     -1.05710852533556
  H           1.23895848197430     -1.93124716078863     -0.34341183956045
  H           1.76854265152156     -1.32227491409523     -1.90656680730823
  H           0.04266897494120     -1.42217476476636     -1.55289871674377
  H           0.10127268222121     -1.82298551678410      1.67252834073968
  H           0.00498036853232     -0.60481565938560      2.94228712730346
  H           1.48152231288360     -0.75844123457956      2.00190500099689
