20
Coordinates from ORCA-job NEB_reactant E -29.166905674190
  C           1.77266084625788      0.00367432290973      0.00118544559759
  C           1.18423175484833      0.61052351119035      1.02499564729711
  C           2.21596779667208     -1.42263370476451      0.03601776491797
  H           1.96291137365436      0.56224149527251     -0.90053955455404
  Cl          0.69207690043101      2.28232750310721      0.86679311262467
  C          -0.31604735015713     -0.19401455755604      5.42109626710283
  C          -0.28112251491554     -0.51203121157764      4.13818998499152
  C          -0.09899548942996      0.47678967550115      3.03128457295672
  O           0.98466169012580      0.03034606959653      2.21877173032743
  C          -0.51727112582831     -1.16902049054038      6.53033331226526
  H          -0.20780837263215      0.83986851057929      5.72408811071183
  H          -0.37908471293565     -1.53969008703838      3.81780028800180
  H           0.11837356843083      1.47410315542820      3.43209355174803
  H          -1.01289350623821      0.53428513777963      2.42230366713086
  H           1.90271661951771     -1.89257666019147      0.96300669775597
  H           3.30131373444777     -1.48077560641062     -0.03809009656167
  H           1.79358434016317     -1.96612933373877     -0.80807706549646
  H          -0.61381842846680     -2.18191760894661      6.14874487649953
  H          -1.41414396031789     -0.91606280087666      7.09496240592891
  H           0.32628683637273     -1.12950731972352      7.21863928075412
