17
Coordinates from ORCA-job NEB E -40.244541170680
  C           0.98186212571750      0.43975910780957      0.30088319857245
  C           0.07216775338137      0.36382037816330      1.36957862747592
  C           0.90356057967119      1.65495206493519     -0.57509964259128
  H           2.01876819582267      0.20613895217857      0.53673701866659
  Br          0.70622968940545     -0.66735756266168      2.91251802665432
  C           0.36367994300805     -1.22436251128928     -0.61245496669522
  C          -1.01396323537637     -1.03001785888402     -0.74895273811575
  C          -1.80439816906471     -0.90748058420898      0.41263359517403
  O          -1.17021608476883      0.45466338617132      1.22534624262686
  Cl          1.30836485376797     -1.44640932372663     -2.05347569587365
  H           0.72684833562617     -1.86626607472975      0.18522582055838
  H          -1.39902307416244     -0.66597489756835     -1.68884488077051
  H          -1.64196117004741     -1.61783496902866      1.21745605687181
  H          -2.83965768679386     -0.62493695619425      0.27957389114933
  Br          1.44111134393192      3.20702719334845      0.56731351415161
  Br          2.18212369214253      1.63255963556366     -2.03784267333644
  Br         -0.83549709226120      2.09172002012155     -1.29059539451846
