17
Coordinates from ORCA-job NEB_reactant E -40.281274213690
  C           1.59627894345785      0.09795851117300      0.09784360106581
  C           0.92822093729316     -1.06409680700443      0.15158430235518
  C           1.96833745076505      0.66475659253712     -1.21030923542941
  H           1.87088179150046      0.62638759140262      0.99452714293996
  Br          0.45112427164693     -1.80156919507175      1.84101533275025
  C           0.17278327066534     -4.39335287255564     -2.92412777473119
  C          -0.35212571683361     -3.30988829243267     -2.37492341345782
  C          -0.11385359709270     -2.93327478310248     -0.94721413166040
  O           0.60022235888435     -1.70097026071756     -0.95896711657421
  Cl         -0.09154778046780     -4.82661315189525     -4.55558735474164
  H           0.78941754593613     -5.09356688555306     -2.37957740526670
  H          -0.95038133354792     -2.61990253288297     -2.95031643442428
  H           0.47560601581214     -3.69953813132542     -0.43063178186692
  H          -1.06931410286661     -2.79390040576721     -0.42450604575357
  Br          2.90502832856072      2.35101989736720     -1.00864309345693
  Br          3.13650235347035     -0.56742289167129     -2.23141650013691
  Br          0.38441926281615      0.98127361749978     -2.34585009161122
