17
Coordinates from ORCA-job NEB_product E -40.286619734660
  C           1.67255253596335     -1.23061666270009     -0.87952866089863
  C           0.95293688517639     -0.93999944610170      0.41914226829465
  C           1.36096610237660     -0.13619583140051     -1.89255544802592
  H           2.75216616329761     -1.19419871021151     -0.67956639558250
  Br          1.79856627040780     -1.84734501526505      1.93177389572398
  C           1.35259796050127     -2.69439005714375     -1.29366679922164
  C           0.11985589502829     -2.88775823829951     -2.11304527054690
  C          -0.98021139813470     -3.43674644660205     -1.62979809099882
  O          -0.00723850502802     -0.28190138252519      0.60131097286370
  Cl          2.76410098708909     -3.37988029358787     -2.18733249408294
  H           1.28589603447083     -3.28828974148906     -0.37677153205432
  H           0.18703369764168     -2.60095466612411     -3.15272786734894
  H          -1.05964377976171     -3.75205136488160     -0.60219795802732
  H          -1.85088877653146     -3.57703082372358     -2.24464217794226
  Br          2.07106774929145      1.55684205395768     -1.17642311517136
  Br          2.24924406692514     -0.45032399759471     -3.59092810537583
  Br         -0.52650188871361      0.14034062369262     -2.25074322160493
