16
Coordinates from ORCA-job NEB E -27.329752043490
  C           0.86272823645785      1.04075798288688     -0.43305074373963
  C          -0.18690994614172      1.57669649468022      0.34178198927765
  O           0.66315287928672      0.80652224881287     -1.74524614793156
  H           1.89508952059218      1.29062470335183     -0.21891511217530
  H           0.04875007747595      1.96443188621425      1.33701329865010
  C           0.66068581577708     -0.77977481039747      0.41529117500487
  C          -0.64254674818970     -1.11906759455552      0.01303475093911
  C          -1.71702310171878     -0.45145596490458      0.59330364546154
  O          -1.38010898317192      1.24586620917423      0.04800855675016
  C           1.76632691586632     -1.45254376071509     -0.16671651970803
  H           0.82730743686178     -0.50738530979736      1.45313451665393
  H          -0.76596599241477     -1.58209984718788     -0.95678433458793
  H          -1.68896878298478     -0.22492823149826      1.65032457768369
  H          -2.70791520115725     -0.60299337711817      0.19442607610984
  H          -0.29662394275121      0.79671348222640     -1.90405189337925
  N           2.66202181621226     -2.00136411117235     -0.62155383500920
