16
Coordinates from ORCA-job NEB_reactant E -27.358852178970
  C           1.52645060707278     -0.40549338912412     -0.12164210419791
  C           1.19030279644651     -0.15972502799630      1.13992042421813
  O           1.78101167208270     -1.58030904888283     -0.76522288635887
  H           1.61069790627885      0.42810109211287     -0.80170354473914
  H           1.05913385576766      0.86531419884044      1.44995123237069
  C           1.88824362409610     -4.38487078417719      1.20339238171159
  C           1.89263689301447     -3.20810061046577      1.83243079862754
  C           0.67791936298120     -2.34560804097364      2.01033731042226
  O           0.97887058795184     -0.98566040948348      2.22084120168441
  C           3.04068680963253     -5.18880370130710      1.10150217457542
  H           0.99342540398293     -4.78888633317955      0.74574054644857
  H           2.79855572557407     -2.82865812905766      2.28823005750501
  H           0.17456940849055     -2.65841359565646      2.93626246875918
  H          -0.03390356886845     -2.47273378464259      1.18220797845529
  H           1.88893891220743     -2.30361603788019     -0.13445306441866
  N           3.97416000328883     -5.84803639812643      1.01360502493648
