21
Coordinates from ORCA-job NEB_reactant E -40.532401970100
  C           1.48798648037061      0.18393685163975     -0.00999959072891
  C           1.20159697729188     -1.13653452063409      0.00789896815757
  O           1.23758092459907      0.96445165712254     -1.05679365149724
  H           1.95251864392459      0.62037107875236      0.86913110547569
  N           1.49609985192185     -1.86981288630205      1.21015228151129
  C          -0.98929463676954     -4.33558559222883     -2.46314658787043
  C          -0.89943452941249     -3.02794003989163     -2.25835647195331
  C          -0.55957689764951     -2.43436916681614     -0.93451251774761
  O           0.74796527968402     -1.83377555299953     -1.05358877295453
  O          -1.28265457282127     -4.93375004775256     -3.63446422441766
  H          -0.85416596221456     -5.05879335069598     -1.67196572183556
  H          -1.02150863617608     -2.32861324830334     -3.07418582293238
  H          -0.54711988850551     -3.20703460044462     -0.16027295315536
  H          -1.27868036866299     -1.64890671866120     -0.66368147213272
  C           1.70631568432848      2.29668317303275     -0.97578015397415
  H           1.31688748884008      2.80991920315570     -1.85249403261564
  H           2.79918887431872      2.32627625126693     -0.99139207193322
  H           1.34424276622155      2.78906719007509     -0.06929529611037
  O           1.33902601310067     -3.07346521984147      1.18780603414055
  O           1.87276121606114     -1.23899230363713      2.18351702845288
  H          -1.37433470845071     -4.27023215683655     -4.33087607587888
