20
Coordinates from ORCA-job NEB_product E -32.012484643080
  C           3.26854673574747      0.73315178270891      1.45453168698402
  C           1.81280155477970      0.80856075262729      1.14794364968588
  Br          4.01934368333737     -0.66814369017588      0.30425043798518
  H           3.77401007402058      1.66090380150408      1.17896428127547
  I           1.00746551970274      2.77596142602047      1.65705502059793
  C           3.45025611182311      0.45451256681745      2.96530483618917
  C           3.16069346492283     -0.98382451894377      3.28545955038427
  C           2.03203281147051     -1.39439451644474      3.83115160041748
  O           1.09102783019989     -0.02211041464695      0.73366942484512
  C           4.81905025537129      0.92052762049091      3.49042377230220
  H           2.69894235453326      1.06999684862721      3.47919688092963
  H           3.93454456690990     -1.69211546935534      3.02816740819224
  H           1.23987019922499     -0.71111660567851      4.09472185210051
  H           1.84964021081257     -2.43396435038847      4.03967793161283
  C           6.04106795701413      0.32365521889100      2.80379724838900
  H           4.84767450988103      0.66834843903887      4.55315423875187
  H           4.86351232429607      2.01013356626829      3.41180238870503
  H           6.01373901710812     -0.76227958479521      2.81145273786543
  H           6.93731916964612      0.64081192149756      3.33182682972400
  H           6.12716164919833      0.65918520593684      1.77374822306273
