26
Coordinates from ORCA-job NEB_reactant E -35.024174613780
  C           2.24477594610142     -0.41320041361747      0.31571559455769
  C           1.52731451064495     -1.51776237398523      0.51308558742736
  Br          3.03094409452871      0.28424486534762     -1.27141936578559
  H           2.44483043743586      0.23788206160753      1.14897421519457
  C           1.04061792081472     -1.81334758274595      1.91624626016861
  C           3.79269683914003     -3.28946480787331     -0.99581359592193
  C           2.96642650289571     -2.81058978595611     -1.90966989291489
  C           1.50742195627999     -2.53630863525686     -1.67822282158979
  O           1.11884489041839     -2.49975981466507     -0.31728108346472
  C           5.25468446223384     -3.55720115837533     -1.16978260997446
  H           3.41729879247164     -3.51364126147728     -0.00461113226461
  H           3.29765087114659     -2.57540637233178     -2.90907342090629
  H           0.90855147584930     -3.35339684459426     -2.09963224026803
  H           1.21108054999675     -1.61196942746698     -2.18813844197125
  C           1.94888367340165     -2.83114235178097      2.60492678987229
  H           0.03309019346530     -2.22460149124581      1.83920068345414
  H           1.00161519396561     -0.89455082095729      2.50042834553101
  H           1.96141391478851     -3.76280543526098      2.04489360586560
  H           1.58601043695966     -3.03748958199877      3.60872786950187
  H           2.96507051094287     -2.44901029175711      2.67486484143473
  C           5.81531305398630     -3.19785167201536     -2.53875018340837
  H           5.43308560648328     -4.61847169152195     -0.96633624932545
  H           5.79396388952987     -2.99524074774582     -0.40000448346098
  H           5.33222946465174     -3.78159517562007     -3.31864457514038
  H           6.88269663850929     -3.40462797574975     -2.56837837682706
  H           5.66428817335802     -2.14139121295560     -2.74660531978406
