26
Coordinates from ORCA-job NEB_product E -35.032949244180
  C           3.08102235600629     -2.02275136449254     -0.07921899562913
  C           1.73128327686924     -2.14310704238288      0.61734281938736
  Br          3.11189343856523     -0.16837239590713     -0.74659190404207
  H           3.88206613715804     -2.06026742174413      0.66399001844583
  C           1.60995301441320     -1.37243278082857      1.91117531538529
  C           3.29707228647860     -3.06839361169372     -1.17723289296372
  C           2.65078601148219     -2.67640514099917     -2.47604541348928
  C           1.53338861687238     -3.20897123011573     -2.93059953454206
  O           0.85016838107082     -2.83862327365422      0.18660045596017
  C           4.78303543635276     -3.42219635629981     -1.36169676815055
  H           2.78682188291285     -3.97148473960112     -0.81593023343494
  H           3.15737899974163     -1.90674565255597     -3.04174161219230
  H           1.00038818356564     -3.96655249019742     -2.38072252445612
  H           1.09704502076526     -2.89483942370337     -3.86345390191538
  C           1.94078053456831     -2.31764651789744      3.07061996586939
  H           0.58006767869474     -1.02721082405068      2.01419241469738
  H           2.27968114269936     -0.51268484279302      1.92946384411925
  H           1.27757796860714     -3.17926208918507      3.05472334930145
  H           1.81504132373075     -1.79889055705815      4.01731363401011
  H           2.96836894990164     -2.67057873397160      3.00489438164504
  C           5.69439136504593     -2.25392598562917     -1.72224229848491
  H           4.84308081126010     -4.17704658024515     -2.14923308569255
  H           5.14625739555666     -3.88388656279955     -0.43856667974738
  H           5.36288535205089     -1.75747462820057     -2.62994638742929
  H           6.70452925901111     -2.62106577163532     -1.89047268037868
  H           5.73743517661922     -1.51638398235850     -0.92462128627291
