20
Coordinates from ORCA-job NEB E -41.431364191040
  C           0.71655683475639      0.76173347311685     -0.60581351140510
  C          -0.58457486055281      0.74340085344826     -1.13757845996298
  F           1.68715649006814      0.16021861507210     -1.32842162903381
  H           1.10261231601858      1.68558682247085     -0.18229944123414
  C          -1.58036606205032      1.78602823643796     -0.70829527094151
  C           0.59490710911954     -0.47104593664298      0.84211280637305
  C           0.12771902700643     -1.58820803627665      0.14879570503633
  C          -1.15460833942683     -1.51810506738162     -0.49499320506139
  O          -1.05561264633704     -0.39487448878196     -1.58823608584531
  C           1.96645466649354     -0.50391176123702      1.46269263131256
  H          -0.13220859910334      0.08160380395966      1.42967481034068
  H           0.85028847189263     -2.29531396931417     -0.23344887401452
  H          -1.97202848477534     -1.17041826190424      0.13502365386947
  H          -1.43273673589085     -2.38762844316102     -1.08066752124322
  Cl         -2.21718365312925      1.50241127004273      0.97163115284054
  Cl         -0.86380777623406      3.40362517283726     -0.71701451954827
  Cl         -2.97215179020228      1.75731020057886     -1.80048026416462
  H           2.29874198232466      0.49652329463722      1.72741271578398
  H           2.69011989512890     -0.95029050568121      0.78573643383019
  H           1.93072215489332     -1.09864527222090      2.37416887306806
