20
Coordinates from ORCA-job NEB_product E -41.460767067150
  C           2.19283887055374     -0.61544451643330      2.03921828213597
  C           1.02746669638352      0.10052010213773      2.71747896549700
  F           1.74759235693980     -0.98380867518747      0.78687494642374
  H           3.05088274356022      0.04630368157712      1.88199832131976
  C           1.23612528275540      1.60693328228673      2.95873898211583
  C           2.57973081777649     -1.87861694332766      2.83077597911251
  C           3.67488403162994     -2.59737294210122      2.09753995319813
  C           3.53267642666810     -3.78029166221433      1.53227441788695
  O          -0.00145106846641     -0.43242012041599      2.99899455927748
  C           3.02762675021942     -1.50886881105443      4.24366369704725
  H           1.68891994622071     -2.51245610853542      2.87648483390798
  H           4.61983441115154     -2.07193585807422      2.05585890217997
  H           2.59645625065103     -4.31245414064350      1.55984351249795
  H           4.34378782099096     -4.26484756804556      1.01701128243070
  Cl          2.75162252970086      1.90642701681838      3.82617679907933
  Cl          1.31726687396752      2.35501053066139      1.34238961266863
  Cl         -0.11004373114091      2.29078391564481      3.87299353665933
  H           3.88206004593086     -0.83668299327679      4.21360914964317
  H           3.31725338830417     -2.41058400154994      4.77708019275584
  H           2.22346955620303     -1.02659418826633      4.79449407416249
