20
Coordinates from ORCA-job NEB_reactant E -41.455237812970
  C           1.53508892233145     -0.10447168024541      0.06268156263415
  C           1.58611687361014      0.05680242630078      1.38561061712290
  F           2.04777716105213     -1.16729970545992     -0.58650583931763
  H           1.07878210032438      0.59763754425214     -0.61289528253930
  C           0.99522924518140      1.27648793939954      2.04704081541728
  C           3.19295524868925     -2.15419441964308      4.43046530248320
  C           3.30506404753672     -2.61291194717304      3.19614731102892
  C           2.77656555867986     -1.93451595753376      1.96897193622604
  O           2.12072771108510     -0.72877215205368      2.33881096672174
  C           3.72766558762412     -2.84610668460645      5.63705827781531
  H           2.68437758994264     -1.21776118966771      4.60917728669402
  H           3.80867077964786     -3.54734432610140      2.98872599226227
  H           2.07352303897277     -2.60149356099321      1.45173554042884
  H           3.60537738112026     -1.71587515898243      1.28187931093927
  Cl          2.30183605335211      2.16141860127706      2.87785458045137
  Cl          0.19569543084762      2.38281991038679      0.93456368118211
  Cl         -0.19231140210291      0.75126108005645      3.26632209426873
  H           4.44119165556031     -2.20300694713446      6.15107691528400
  H           4.22037748835726     -3.77760309451989      5.36993239328598
  H           2.91848952818751     -3.06097067755831      6.33414653761075
