20
Coordinates from ORCA-job NEB E -52.444923859350
  C           0.49659316153317      0.31542358485937     -1.12182836894451
  C           1.55655208935197     -0.61646770772314     -0.77975195556722
  C           0.48053268791548      1.51574176957769     -1.72851459231835
  H          -0.45882412089898     -0.06552821580230     -0.77958350463716
  C           3.00743284932696     -0.37974414974342     -1.28226075742785
  C          -3.05253664024699     -0.98137987139961      1.92560317446199
  C          -2.27738140629954     -0.12591059923698      2.69569749573091
  C          -0.93861268266403      0.02564001410434      2.50055176609812
  O           1.35077609828046     -1.57094897491405     -0.06649724220503
  Cl         -4.69707563411093     -1.17727696104527      2.18236470420819
  H          -2.62631059700601     -1.56778617526782      1.12513394043668
  H          -2.76966324077971      0.43015290918387      3.48199850767242
  H          -0.35200144059318      0.67479522186100      3.12473564860870
  H          -0.42181288914161     -0.50870012457444      1.72260664677605
  Br         -1.15663604912633      2.43256068946894     -1.81559142566120
  Br          1.88814979206349      2.50801021140050     -2.42431302746360
  Br         -0.45282773091257      0.03459353929522     -4.49841105301190
  F           3.56303816410499      0.68164387131453     -0.67614175214866
  F           3.76748710546257     -1.43290410123156     -0.98559810571826
  F           3.09312048374082     -0.19191493012684     -2.60020009888934
