20
Coordinates from ORCA-job NEB_reactant E -52.530976808930
  C           1.36181069091564     -0.61821473462609      0.08919392647831
  C           1.96841191973576     -1.19687382511084      1.13451294524405
  C           1.93076733399224     -0.19922385721844     -1.21169589342308
  H           0.29608264291030     -0.45418752164545      0.16686447798857
  C           3.45105443061197     -1.54215709105837      1.24329592527328
  C          -1.55989964971111     -1.82728596608631      4.35945855629717
  C          -0.33780048496154     -1.84045973488777      3.85380432506623
  C          -0.00442378478211     -1.33435066038342      2.48040120193289
  O           1.38263362808418     -1.55054323774468      2.28477968744203
  Cl         -1.91206383374539     -2.40877060625560      5.93040870795055
  H          -2.42195259864474     -1.45209206354272      3.82825169399730
  H           0.50247286867520     -2.22383437331673      4.41169052294732
  H          -0.23012252500741     -0.26190959944702      2.39633497634544
  H          -0.57961518895143     -1.87626881704102      1.71704923630652
  Br          0.63997640321633      0.96379722021945     -2.11330830221810
  Br          3.59742280257006      0.81724299473890     -1.09307040359363
  Br          2.21103597260587     -1.75713384911901     -2.41099675406510
  F           4.16402337564965     -0.50631792369746      1.70329653653973
  F           3.63775133118981     -2.55071774741735      2.09287323715886
  F           3.99343466564670     -1.91409860636008      0.08195539633166
