24
Coordinates from ORCA-job NEB_product E -35.935226487150
  C           2.75787009054328     -1.18216736233495      0.82723972748563
  C           2.80648018967226     -0.27226029946158      2.01531587483485
  C           1.85681679789048     -0.51920598809046     -0.22956387889823
  H           3.75952017223914     -1.32973014375860      0.41632788386123
  Br          4.64929777596125      0.23311236913269      2.52444030095100
  C           2.20007293214580     -2.53684058252149      1.35401411659659
  C           2.28914070453457     -3.61887423033605      0.31463134844464
  C           1.31177921610995     -4.47322068616146      0.07549555912731
  O           1.91567360353176      0.17575067294211      2.64172813378864
  O           2.83077029825042     -2.89635732821699      2.57491956709260
  H           1.15408375978343     -2.38622914104394      1.64703650995787
  H           3.23231092115048     -3.69355294220280     -0.20987467997946
  H           0.37068201763674     -4.41737535874367      0.59690582064932
  H           1.41091110504454     -5.26011301063900     -0.65303862750577
  C           2.00749232463343     -1.13302932022509     -1.61491645452934
  H           2.12205943760785      0.54003411360661     -0.28801081442313
  H           0.81764553034138     -0.58034256404653      0.09802001466455
  H           3.04262815393616     -1.08461293800429     -1.94540061778289
  H           1.39783204193623     -0.58096553165896     -2.32570726439829
  H           1.68700033834266     -2.17071044473311     -1.61924772716023
  C           4.12216982449239     -3.45931298669249      2.48884632889045
  H           4.46361530411484     -3.55381861172634      3.51787025224357
  H           4.82223692003040     -2.82020811614491      1.94246057252621
  H           4.09661054007057     -4.45086956893870      2.02560805356285
