25
Coordinates from ORCA-job NEB_product E -42.460089335830
  C           2.55548314130469      1.31687011195317      1.10525853689831
  C           2.13502555326733      2.18555116474280     -0.08785287846653
  C           1.76630231893939      0.00017127762019      0.97398381712830
  H           3.62358943437064      1.08552795135981      1.03824781881830
  N           2.87700943923030      2.00562709658125     -1.19870721473031
  C           2.25198113735669      2.10437940774096      2.39883655359907
  C           1.87319908732405      1.26237873944489      3.58244071031292
  C           0.63590474170223      1.16216899832591      4.03079402150704
  O           1.17414173702814      2.91990050739780     -0.04918754535981
  C           3.42304342919552      2.99403691311125      2.78375649515428
  H           1.40372885005727      2.76459003550829      2.15783569773303
  H           2.68174141616907      0.74168449327434      4.07863120717338
  H          -0.18365323156669      1.68091929358943      3.56085069852184
  H           0.39322202055028      0.55386374742113      4.88446052066472
  C           2.46280504334705     -1.18915470079461      1.62367813157223
  H           1.63922652067807     -0.21350284212869     -0.09042776766925
  H           0.77125441812076      0.13369752798277      1.39988267130221
  H           3.46149207102988     -1.32184408982642      1.21269136757238
  H           1.89312259358691     -2.09540784291445      1.43429519585697
  H           2.54754415848758     -1.06217930690230      2.69819209530444
  H           2.65020794577249      2.54394973847267     -2.01861861751967
  H           3.71376029139197      1.45064956587199     -1.20693948987861
  Br          2.96645010486457      4.06820791000755      4.35299035240766
  Br          5.01647508305201      1.95149644024976      3.23422726899285
  Br          3.94534269473977      4.22491786191049      1.36038035310428
