19
Coordinates from ORCA-job NEB_product E -36.628804708670
  C           2.65402075535615     -0.88203445512207      0.14932230277557
  C           1.32940540896536     -1.00902854900906      0.81564916658799
  C           2.51368912723514     -0.15461508678132     -1.18613751352488
  H           3.33515228871316     -0.33999700582561      0.81568514487633
  N           1.43137363797243     -1.40599199149303      2.31455554810938
  C           3.27016015444146     -2.30173003387059     -0.03879921161310
  C           2.41980391896501     -3.17523144716125     -0.91184443163645
  C           1.45450293743316     -3.94728910473029     -0.45122038487996
  O           0.23706494368915     -0.87313246526450      0.38150014618945
  F           4.50757152240466     -2.13282854287082     -0.61462127432518
  H           3.45300830120038     -2.75976001902342      0.94181103047879
  H           2.65262097371537     -3.12507237887735     -1.96520163857083
  H           1.22064201374166     -4.01470494102713      0.59930812881175
  H           0.85284060216279     -4.54899498277488     -1.10848860807505
  H           1.75637906087071     -0.63430832164336     -1.80094505826109
  H           3.46410720810346     -0.16752536419100     -1.71227013836925
  H           2.21883421445230      0.87812921147585     -1.01979846717807
  O           0.39369966702455     -1.69341457853657      2.84490922993319
  O           2.53242326355308     -1.40766994327359      2.81268602867142
