19
Coordinates from ORCA-job NEB_reactant E -36.625060532730
  C           1.68122075425208      0.12118893359315     -0.10921983081149
  C           1.68403637123945     -1.03397946665971      0.55785657977941
  C           1.10594781637943      0.31276757381853     -1.46229610413938
  H           2.11938668705137      0.98095766675158      0.37873033890289
  N           2.25182076818199     -1.08605045895801      1.90664135328255
  C           3.35618209915482     -4.63498046404598      0.73847640164340
  C           3.22689492661748     -3.48099640724255      0.11127454890411
  C           1.97164932452747     -3.08607774937494     -0.60220437477890
  O           1.13410159687834     -2.20406042207132      0.15487737898835
  F           4.48610650648072     -4.97645974035395      1.36031397112788
  H           2.60254195580996     -5.40663738458579      0.80181159199693
  H           4.04072297681201     -2.76937213997528      0.12351851654227
  H           1.33756713574888     -3.95545565743870     -0.78148275882981
  H           2.22508939894963     -2.60857332489779     -1.55842558485454
  H           0.59080373912984     -0.58203105857742     -1.80120658589744
  H           1.89610729063012      0.56867211047263     -2.16842020590836
  H           0.40542170520542      1.14610149160706     -1.44570660245352
  O           2.18013166559664     -2.14091806409380      2.49217562172861
  O           2.75186728135435     -0.07039543796772      2.34378574477704
