20
Coordinates from ORCA-job NEB_reactant E -32.466472795690
  C           2.45768719476768     -1.24568899230239     -0.38632085936934
  C           1.55251010411061     -1.98117082013473     -1.02772581840706
  Cl          3.47686552645763      0.01612876822899     -1.00394534453814
  H           2.62541092007355     -1.41398029444151      0.66380380993195
  C           0.75260216267151     -3.00415709332943     -0.25435774021934
  C           3.72355982712509     -2.54200141598816     -3.34173724678879
  C           3.12112542060833     -1.41554584180112     -3.66377071531811
  C           1.71244218003716     -1.08392444694313     -3.26070930707461
  O           1.14687657466222     -1.97240153823431     -2.32311145688623
  I           5.69382721188089     -2.99439353265271     -3.91416137445955
  H           3.26294366868257     -3.31728347874378     -2.75402387362838
  H           3.61079069436707     -0.65591696157907     -4.25478601390875
  H           1.06351946417467     -1.16702232138282     -4.14171509937169
  H           1.66478674884393     -0.04954501657501     -2.90214626491507
  C          -0.57781665919108     -2.40971398870406      0.20655838346246
  H           1.32324946215019     -3.35086318710406      0.60605776389527
  H           0.55863312719832     -3.84969401717247     -0.91532291592386
  H          -0.40593540588064     -1.56810891637403      0.87278502418303
  H          -1.16053567352906     -3.15992115676705      0.73475046200206
  H          -1.15074254921062     -2.06419574799914     -0.64972141266586
