17
Coordinates from ORCA-job NEB E -30.480660686300
  C           1.20607877767214      0.56308050345042     -0.51414636656302
  C           0.98269084523343      1.39484355203030      0.57769903826010
  O           0.70137739927721      0.90550584134127     -1.73512872066503
  H           2.15614366823092      0.02947221075549     -0.53128031701008
  F           1.86331269364531      1.12113095210879      1.62556959054724
  C          -0.10406759305365     -0.94053518066593      0.04448389558510
  C          -1.25699852708944     -0.18453719490399      0.27301830127408
  C          -1.31865141704486      0.71551234802618      1.33212680622898
  O          -0.07401716153771      1.96532626828697      0.88429996275593
  N           0.00828216432101     -1.74773138248386     -1.09071494734718
  H           0.49566788015096     -1.25581995585539      0.88933633658240
  H          -1.92574972464957     -0.03888919345752     -0.56507965109290
  H          -0.84678947968571      0.45416530125690      2.26925342761622
  H          -2.18499894692450      1.35021838350865      1.42419513651941
  H           0.70090396274678      0.11423296426312     -2.29253445649221
  H          -0.83363889441718     -1.79518414195102     -1.64631249313528
  H           0.43045435312485     -2.65079127571039     -0.94478554306375
