17
Coordinates from ORCA-job NEB_product E -30.519015384230
  C           1.21652091472473     -1.99329047946946      0.09491947200648
  C           1.33155298437800     -0.75028693895629      0.92032037927500
  O           0.57268151242884     -1.71898406730673     -1.11647524086057
  H           2.21242140301438     -2.39433732612545     -0.13131273518993
  F           2.12941131163978     -0.92274722202786      2.00160090542962
  C           0.46326227504783     -3.08037187160455      0.92861579553139
  C          -0.95154133397564     -2.63361027634248      1.18947575086147
  C          -1.42851530989025     -2.35438210254524      2.38760852186928
  O           0.78907293663159      0.28483524143983      0.73779312155294
  N           0.56360480153522     -4.32201139926861      0.18315313505500
  H           0.99575605999568     -3.21367198815180      1.87768981400224
  H          -1.58175052137861     -2.57598206044904      0.31099562999491
  H          -0.81203849503602     -2.41367098122627      3.26984410421736
  H          -2.45069083073249     -2.05203204697123      2.53746931876318
  H           0.04818807831237     -0.91212440131211     -1.01244554061275
  H           0.20805935930411     -4.18253650718618     -0.75764566703930
  H           0.01370485400046     -5.04699557249653      0.63009323514367
