17
Coordinates from ORCA-job NEB E -30.194314336110
  C           1.05483823508002      0.44873517478026     -0.31217257379543
  C           0.06900935375321      1.41675807705247     -0.20738841626260
  C           1.04501313618306     -0.46008583526198     -1.51709568238756
  H           2.05259926948887      0.71731604080151      0.01526252189440
  Cl          0.37804762305642      2.75186746787010      0.90252423962986
  C           0.33029454690507     -0.77356736081832      1.11211068383274
  C          -0.97203118472827     -0.95580452510016      0.70117952564196
  C          -1.82018372023655      0.20299656646103      0.64471936590913
  O          -1.16773554773286      1.15255985561434     -0.44760265236322
  H           1.01579740993134     -1.60670689878037      1.07303905464453
  H           0.52830296866250     -0.07783723658029      1.91570196034462
  H          -1.21768051824535     -1.79359482748432      0.06543101809197
  H          -1.81381673352746      0.83349657621456      1.53253624556226
  H          -2.82096449563914      0.04988090364030      0.25718023303561
  F           1.79987065553584      0.11021379739998     -2.51569221550919
  H           0.03435215194096     -0.58611156399830     -1.91489936770654
  H           1.50428684957233     -1.43011621181081     -1.30483394056253
