17
Coordinates from ORCA-job NEB_reactant E -30.216758544330
  C           1.75443462238507     -0.07891757578306     -0.08219660183519
  C           0.91548546616624     -0.16796863445402      0.94687373342446
  C           2.34648909441654     -1.27895946649148     -0.74723990211899
  H           2.05207619080672      0.88360179547655     -0.46095091561005
  Cl          0.29122507358462      1.28526825758243      1.67114703935093
  C          -0.21162604876908     -3.39439178360617      4.17841784662100
  C          -0.43307784074458     -2.83186008628826      3.00654163342952
  C          -0.15129746665580     -1.39427818539222      2.70032560420472
  O           0.47181316077369     -1.33773260989432      1.41923097452923
  H          -0.44940158304584     -4.42699360699185      4.36436997235811
  H           0.20586998447830     -2.84242006221533      5.00437804411507
  H          -0.84634087285040     -3.39053012900876      2.17933571010781
  H           0.49932231651166     -0.94905269059236      3.46176240495483
  H          -1.09470640383618     -0.82952757578613      2.67110049757693
  F           3.70958046722566     -1.12825876732945     -0.87650342302783
  H           1.95931944914729     -1.40592992730205     -1.76584929850059
  H           2.17313439040611     -2.18454895192349     -0.16014331957996
