21
Coordinates from ORCA-job NEB E -46.058514178900
  C          -0.23936438716626     -0.32066328545908      1.05141437077576
  C          -1.51917268019817     -0.63780252369372      0.54908823040510
  C          -0.03062586247894      1.06060814094783      1.61444629385627
  H           0.24284451859517     -1.05180910074720      1.69625467544123
  O          -1.95456327134822     -1.92754859559890      0.58782276326580
  C           0.76466725121798     -0.37397864128426     -0.67708340021949
  C           0.02011946689476      0.47997238192086     -1.49267607715993
  C          -1.32088396533519      0.14970932769724     -1.77716568356657
  O          -2.10758847454088      0.13692172126122     -0.26330777035822
  C           2.21035678240393     -0.05203398486256     -0.38861062473996
  H           0.61852022250275     -1.44363789562658     -0.80256756577251
  H           0.32238989003494      1.51401198809652     -1.55611236696181
  H          -1.54516085760255     -0.87495737750579     -2.05493058535292
  H          -1.91206823076807      0.88356407030131     -2.30606781384978
  F           1.21703574980688      1.21476026641823      2.08351378453796
  F          -0.27662423789884      2.07303048210185      0.79338193164900
  F          -0.83493085779378      1.24311149507516      2.68946559884365
  H          -1.48120980557840     -2.45245268104688      1.24366706560423
  F           2.44491271147516      1.29357628485030     -0.38514240818066
  H           2.83616159900113     -0.47575613766204     -1.18511913007703
  H           2.54518443877661     -0.43862593518350      0.57972871185989
