14
Coordinates from ORCA-job NEB E -30.599148835010
  C           1.17768926163507      0.81520753429904     -0.28139384254488
  C           0.63813988080864      0.93513617441480      1.00638220568425
  F           0.70638282197264      1.65978159804279     -1.21565938729491
  H           2.24342436929868      0.65011906482656     -0.41636213289060
  Cl          1.56947079782875      0.10062834549991      2.25491033184987
  C           0.30241835784845     -0.83442799141124     -0.80650355790532
  C          -1.04108775855149     -0.51984405582669     -0.61986170698256
  C          -1.46813200268219     -0.24885566056402      0.70949935203704
  O          -0.61294750516546      1.06660084934020      1.18861524551309
  Br          0.92365379385852     -1.17279005377258     -2.57998134967767
  H           0.80719552350410     -1.48352596295540     -0.09825859403174
  H          -1.59615300792002     -0.09802568400237     -1.44468028371671
  H          -1.15993369289008     -0.95762531697305      1.47444386402100
  H          -2.49012083954562      0.08762115908205      0.82884985593913
