14
Coordinates from ORCA-job NEB_product E -30.641479828690
  C           1.45167062416069     -1.60193275518854     -1.03194352824021
  C           1.08968342597946     -0.84557885939412      0.23132326299204
  F           0.96183632077558     -0.90981646582088     -2.10318625117239
  H           2.54284394483444     -1.65085067906988     -1.14686237683756
  Cl          1.94043712171490     -1.51720153383213      1.62250768770699
  C           0.83642755460830     -3.00645541005106     -0.97612533135665
  C          -0.65254900035874     -2.96494778208676     -0.96855265923292
  C          -1.38533616687324     -3.57911948165985     -0.05846330383002
  O           0.33990667194447      0.05668486500193      0.34572851253301
  Br          1.46427829690508     -4.02070143253124     -2.55639135275544
  H           1.23648940790693     -3.54366639761888     -0.11451747652254
  H          -1.10129011903109     -2.39899069706202     -1.77282323905315
  H          -0.94276905321431     -4.15229206720451      0.74022007866019
  H          -2.45942902935248     -3.53063130348205     -0.07771402289134
