14
Coordinates from ORCA-job NEB_reactant E -30.623348653990
  C           2.09001432999842     -0.01822227844831      0.15857061601498
  C           1.32437051001558     -1.08881635113083      0.36531905132195
  F           2.33107720563183      0.43953195048129     -1.08223510996112
  H           2.56750141606253      0.55535402547947      0.93291478281714
  Cl          1.07536637757606     -1.59430058704124      2.00322536618669
  C          -0.57457611365217     -4.69081117767032     -1.95637702973481
  C          -0.61315330796929     -3.41492654880378     -1.61742672515768
  C          -0.07306785463246     -2.89734594452592     -0.32250390491541
  O           0.75076623148269     -1.78152352674980     -0.62584500902878
  Br         -1.29738638773867     -5.33309083188796     -3.57325285398469
  H          -0.15421842009296     -5.46936750628830     -1.33906511309570
  H          -1.03446172753415     -2.66844464159024     -2.27426038972011
  H           0.50295538022654     -3.66924791585868      0.20251917984140
  H          -0.90518763937395     -2.57948866596538      0.32281713941614
