16
Coordinates from ORCA-job NEB E -29.547374196310
  C          -0.04552896161656     -0.33441602598547      1.46997859153479
  C          -1.33082840825346      0.03504091302093      1.15562373437993
  Cl          1.07400069466789      0.87838584626644      2.03239508536329
  H           0.16375696968361     -1.30636763608479      1.89181169405893
  I          -2.64535036380841     -1.73266994786560      0.97769146157701
  C           0.66364407926887     -0.50804996085022     -0.60513264986704
  C           0.25869268059140      0.77065765071848     -1.00583651839895
  C          -1.07349182509771      1.08913535490269     -1.16758521601850
  O          -1.71512413182864      1.07409489202371      0.62323973503912
  N           1.97808360877946     -0.81818730635116     -0.47571823764189
  H           0.01803987328050     -1.35260253262599     -0.81328206112796
  H           0.97901734005289      1.57093759439028     -0.90745126059311
  H          -1.77643079368246      0.32705171715833     -1.47244151945692
  H          -1.35558250677772      2.09996094952653     -1.40997664760992
  H           2.59121823581708     -0.06954865252979     -0.18850907312415
  H           2.21588350892326     -1.72342285571436     -0.10480711811463
