16
Coordinates from ORCA-job NEB_product E -29.574062144500
  C           2.99331453724873     -1.20364322034446     -1.06279719815679
  C           1.55499366271773     -0.86733332582377     -0.86489402157088
  Cl          3.97297648305040     -0.02542766750369     -0.14197757503175
  H           3.22833265123762     -2.19604985915194     -0.67068126347960
  I           0.27983647171658     -2.52052273109226     -1.47511363737804
  C           3.36929770824538     -1.16492702633275     -2.56544801531376
  C           3.06535546643509      0.19189813160140     -3.14752217395120
  C           2.15449938427693      0.39885286317204     -4.07925740141158
  O           1.06276489953351      0.12317763367747     -0.46573465886106
  N           4.75356766617394     -1.57879005455759     -2.68311047003105
  H           2.76307506695746     -1.92516086827201     -3.07438664145155
  H           3.66537433953149      1.00452309957877     -2.76100657795485
  H           1.55118387170384     -0.40353810552347     -4.47325688941169
  H           1.97032386945136      1.37812431784087     -4.48588153343879
  H           5.36359014336132     -0.91053376050314     -2.22298482860439
  H           5.02111377835862     -1.63754942676547     -3.65824711395304
