16
Coordinates from ORCA-job NEB_reactant E -29.566858738200
  C           2.11061911387525     -0.35095128958292     -0.27941375766573
  C           1.45894430082155     -0.92859065161832     -1.28045068333740
  Cl          2.70217290127832      1.27265790759029     -0.30206207254735
  H           2.29446816865777     -0.86420355404505      0.64793055137069
  I           0.80340674881283     -2.92687844405395     -0.95031002927178
  C           3.75167867399370     -1.32641580668627     -3.68027649025372
  C           3.40675598173471     -0.11068217577096     -3.25116270973812
  C           1.98380078513546      0.34889220461452     -3.24088899238457
  O           1.12023123220485     -0.53954000011524     -2.49952137540733
  N           5.03441799301329     -1.80244675256584     -3.76736992179152
  H           2.99694855892404     -2.00455881769711     -4.05769318478230
  H           4.14857203863702      0.56705074587843     -2.85795970396034
  H           1.53836525097257      0.32866055219561     -4.24025786250869
  H           1.90178871059908      1.36019921066408     -2.83527835925843
  H           5.73639122846745     -1.28021553221762     -3.26666782186514
  H           5.15603831287210     -2.80087759658965     -3.74491758659826
