20
Coordinates from ORCA-job NEB E -50.699690979710
  C          -0.15176198804510     -0.60208761334782     -0.69491856635617
  C           0.85524388053921      0.38240581550884     -0.49585642723323
  C           0.00417842894060     -2.09058869381807     -0.76088447762099
  H          -0.75814186317504     -0.28451975464603     -1.54573805935708
  C           2.11623928461428      0.27191288393883      0.32245532194723
  C          -1.49772818263303     -0.13803404518477      0.60998473961869
  C          -1.25854898253881      1.19375456313410      0.99077740057611
  C          -1.01533526290233      2.12006005629811     -0.03373194283303
  O           0.47575530615143      1.58629117114754     -0.70886563697170
  F          -1.42515471346320     -1.05679734491140      1.58488241429757
  H          -2.34136937815015     -0.36382172504946     -0.03972031395986
  H          -0.80922058623103      1.35228473150460      1.96173047381413
  H          -0.74684027923716      3.12976603773336      0.24436803836904
  H          -1.62229003980846      2.06246673916063     -0.93008713405501
  Br         -1.76081492379893     -2.90977022162581     -1.07354492141478
  Br          1.06093071484714     -2.52959027148030     -2.38970095707667
  Br          0.77437566189793     -2.99684413282469      0.76321291268297
  Br          3.36622037517360     -1.07721256622398     -0.28273226351786
  Br          3.04199640282205      1.98048134466201      0.23519649993129
  Br          1.69226614499702     -0.03015697397568      2.24317289915935
