21
Coordinates from ORCA-job NEB_reactant E -33.415395220860
  C           1.50169986925946      0.06792632401014      0.21387787622488
  C           2.29873233451398     -0.03748948530975     -0.85587782810079
  C           0.01700360896092      0.00938179443661      0.13064461419416
  H           1.93288003439711      0.27356233868346      1.18069287485414
  O           3.65499434673043      0.04103423163673     -0.77764379801113
  C           3.05272547601180     -2.80341678780477     -4.04105669412109
  C           3.27108630073752     -1.88814462409733     -3.11217832760711
  C           2.70998991851498     -0.49880709174481     -3.15557474308358
  O           1.80141563359364     -0.24994136983518     -2.08300236822203
  C           3.60575687947568     -4.18744966351857     -4.01433713134045
  H           2.44351331990055     -2.56139704434302     -4.90291655003930
  H           3.87293853299295     -2.11487971254605     -2.24293740315554
  H           2.11030863898611     -0.35051185697756     -4.05619917863015
  H           3.52164771139831      0.23797132960197     -3.12954772570813
  F          -0.54393654895248      1.25766470230911      0.36494375959166
  H          -0.40889244003341     -0.64865746388582      0.89651447919766
  H          -0.30775835991485     -0.29483248029101     -0.86658085123459
  H           3.91442352297908      0.25662335442304      0.12444715789911
  H           4.20690762805422     -4.35245348091522     -3.12407393579963
  H           4.22314877603213     -4.36177823574595     -4.89508256565265
  H           2.79441481636186     -4.91440477808604     -4.03311166125544
