19
Coordinates from ORCA-job NEB_reactant E -39.394912624130
  C           1.80647217552996     -0.09076964581335      0.13934981461906
  C           1.49633554047162     -1.27897019955107     -0.41411848096556
  N           1.89984271153886      1.07152125247779     -0.56434472422225
  H           2.05335652837868     -0.03097074109664      1.18938492565997
  C           1.46844556191615     -2.52988522237203      0.38445141102166
  C           4.01707632256616     -3.17560227551731     -2.52912691055064
  C           2.78821839134191     -2.82810894082763     -2.85906278795119
  C           2.26218930781796     -1.43590450782388     -2.66928971218743
  O           1.16601951038473     -1.38981946955762     -1.74975312815173
  I           4.76978005501985     -5.11891179915899     -2.78047278017668
  H           4.73828387557482     -2.49115754921526     -2.11289103429958
  H           2.08347670559555     -3.54173573718592     -3.26002089988425
  H           1.84192056466903     -1.07542848961963     -3.61351525606410
  H           3.06081505117920     -0.76102306186409     -2.33945969343182
  H           1.46175950942896      1.07447122576286     -1.47334511573382
  H           1.83487856097092      1.93181001536069     -0.04787846262804
  Br          0.55745034714535     -2.29877120490523      2.10458734782711
  Br          0.58231462320511     -3.94948101255754     -0.56926424478801
  Br          3.32476465726515     -3.16266263653513      0.83796973190728
