19
Coordinates from ORCA-job NEB E -29.581625738120
  C           0.33092284327497      0.12576654606982     -1.24884827909525
  C          -1.03510621212106     -0.11842804218642     -1.17560739712692
  H           0.98409484192489     -0.71723415055472     -1.39713167012763
  H           0.65401889931186      1.03911306526885     -1.72833536180615
  N          -1.94537557071588      0.91984489350791     -1.32636596408991
  C           0.68448167908343      0.31220173311428      0.69955347369542
  C           0.17771446865633     -0.87319562257559      1.21749125145378
  C          -1.21607353279864     -1.13356635148337      1.00701870718307
  O          -1.47581594869783     -1.18883802907837     -0.56504316769077
  C           2.16455547265211      0.58749982819541      0.77870892087229
  H           0.09561479952920      1.21541833790255      0.82634949513433
  H           0.84301290404448     -1.72194703532212      1.28024395530208
  H          -1.88705487769776     -0.33088021445997      1.31171841758558
  H          -1.57112440992703     -2.10567121721732      1.32918336899426
  H          -2.91244731287572      0.63484242431216     -1.32437298260597
  H          -1.71722628973508      1.62919538000177     -2.00281552987741
  F           2.90478405546402     -0.49125910079298      0.36059413709768
  H           2.46617797647609      0.78687567599223      1.81472967770469
  H           2.45484621415162      1.43026187930589      0.14292894739683
