19
Coordinates from ORCA-job NEB_reactant E -29.608200454840
  C           2.49736913954310      0.62320929419958      0.37568477681875
  C           1.57937773132251      1.20703187465407      1.14286181074037
  H           3.12292098560395     -0.17655153203962      0.71572012357725
  H           2.66214569044641      0.97987139455969     -0.62277974782320
  N           0.84260530187300      2.31901487487912      0.75306315438140
  C           3.86834211815920      1.40827190292086      3.38765110166921
  C           3.34760918573406      0.19698461805681      3.47251264062339
  C           1.95043751522538     -0.16432078205330      3.06178871873029
  O           1.23334897907117      0.86390893397062      2.42285046973915
  C           5.25866758840116      1.76470988950606      3.80171266646772
  H           3.30063494363837      2.23773420571039      2.99157668191131
  H           3.92465252528077     -0.62521985974707      3.87189922861221
  H           1.36253617613315     -0.39674034202512      3.95800215012855
  H           1.97300749576528     -1.06525306856685      2.43172367913053
  H          -0.00549187044204      2.43716744842464      1.28707989106940
  H           0.71130209884836      2.40827601045383     -0.24175798759137
  F           5.94269342353990      0.68961560897603      4.31270188175254
  H           5.24869001614932      2.53344679606727      4.58476219704180
  H           5.83885095570695      2.13004273205300      2.94484656302068
