19
Coordinates from ORCA-job NEB_product E -29.641591318940
  C           3.27603839562415      1.54261580031253      1.14073192144421
  C           1.84021952360324      1.25688228497424      0.72153371712363
  H           3.92708372629954      0.88102139467009      0.56811022869972
  H           3.52862975294834      2.57830062267728      0.90517054644579
  N           0.94197978208409      2.15851445959474      1.18092532411988
  C           3.46240088206902      1.27759084220867      2.64320063761888
  C           2.99555896882943     -0.10778175284234      2.98689488238855
  C           2.06011672183804     -0.37517335801179      3.87655878626704
  O           1.52063999615716      0.31549931477866      0.03596102604970
  C           4.93899004022280      1.44965995619240      3.00971771521246
  H           2.88810912743026      2.00444873870915      3.22782758626289
  H           3.48303241039250     -0.90373328958683      2.44111138847243
  H           1.56195229429123      0.40324669358218      4.43169896610488
  H           1.75472826554626     -1.38363241498706      4.09379903769434
  H          -0.03373844847166      2.01190205195271      0.98376858154397
  H           1.20235325365593      2.92245260918920      1.77724320419132
  F           5.09528396469745      1.44518689819402      4.37319023406423
  H           5.32889740830387      2.41020582050523      2.65475015173568
  H           5.54842393447834      0.62959332788692      2.61720606456038
