24
Coordinates from ORCA-job NEB E -49.185620218220
  C          -0.15505816944684      0.25529984375641      0.22722093682746
  C           0.33687074914641     -0.98800784069540      0.90578841591648
  O           0.45422251272605      1.38157661013515      0.82454244459009
  H          -1.24492297235954      0.32081072457985      0.33793099254090
  C           0.34855290216907     -0.93592623519911      2.41120780221018
  C           0.14214527996202      0.08812335702449     -1.28988436695504
  C           0.03288643201120     -1.36982066002386     -1.52615584833621
  C           1.10519557762814     -2.18487945451814     -0.92511625701260
  O           1.22159055099200     -1.89285010237737      0.44731592689127
  C          -0.83540326427837      0.86593699276286     -2.14704715413357
  H           1.14313275128644      0.50276839073598     -1.47892155105899
  H          -0.49162527036504     -1.73381787333948     -2.38964820167675
  H           2.09025441871476     -2.01570283619841     -1.38569652256243
  H           0.88830422981376     -3.25600594431611     -0.99168583593223
  C          -0.41885077778147      2.36388035662014      1.34541551097093
  H           0.22239962037871      3.14687283990981      1.74493197794715
  H          -1.04079596107998      1.95512542743874      2.14700862496861
  H          -1.05816201873610      2.78285311022917      0.56356726563450
  F          -0.87525273002343     -0.52499847329660      2.88183839318341
  H           1.08507873630710     -0.21887232768719      2.79847060416593
  H           0.54167092945560     -1.92999634884160      2.82372281687887
  F          -2.10870978144666      0.48983930153672     -1.95431527132725
  F          -0.79739111949672      2.18772658846727     -1.91440987438690
  F          -0.58613262557712      0.71006455329667     -3.45608082934381
