24
Coordinates from ORCA-job NEB_product E -49.248219730030
  C           0.77676564816413     -0.05901446258985     -1.77076511590757
  C           1.47662098164166     -1.06008548977650     -0.83756535602189
  O           1.68516011177259      0.87300907415601     -2.29018383196950
  H          -0.04129945693439      0.44438849823866     -1.23112637270117
  C           0.65959720642719     -1.61489605981677      0.31797723485615
  C           0.21188173050666     -0.85680446328235     -2.96921417538000
  C          -0.59180481639067     -2.05189210287065     -2.53846565665590
  C          -0.24729983742618     -3.29570575099945     -2.81022736154560
  O           2.61814016459818     -1.39470626127388     -0.99167056998225
  C          -0.68020798346344      0.04871169815655     -3.81731966655290
  H           1.06077698866512     -1.15316233183876     -3.59354257241016
  H          -1.49386227181298     -1.82403179029767     -1.98725067122372
  H           0.64717420956526     -3.53160402638008     -3.36254062818104
  H          -0.84993221805172     -4.12823209024442     -2.49176379840193
  C           2.11804130550425      1.83947242358343     -1.36111454953178
  H           2.74002653271222      2.53183597946114     -1.92291003413005
  H           2.70865805047073      1.38906633073632     -0.55627752212797
  H           1.26700218992266      2.37820349931661     -0.92792432522468
  F          -0.60897091909101     -1.11209248319367      0.37806244320969
  H           1.15651931046721     -1.37025560973246      1.26420399533092
  H           0.58159251536562     -2.70339565899890      0.22134452403632
  F          -1.68726560778416      0.57903254467355     -3.10539394535503
  F          -0.03502441530174      1.06839834234248     -4.38470637928065
  F          -1.25018941952718     -0.64053980936934     -4.82002566484928
