24
Coordinates from ORCA-job NEB_reactant E -49.242515352850
  C           0.89394585316399     -0.05736222038616     -0.57724210521801
  C           1.17604111547733     -1.36493887607018     -0.54945435070275
  O           1.51782050598189      0.80195624458863     -1.40479724332903
  H           0.15034928169537      0.35054581153554      0.09811183787027
  C           0.40070089558658     -2.31851017016963      0.31563131301164
  C          -0.24981491923701     -1.18765555320225     -3.41532030235844
  C           1.04862781860688     -1.44828117643928     -3.42530142539636
  C           1.65195963939490     -2.50876152155326     -2.55693474452979
  O           2.15246793022992     -1.91240852716660     -1.36072674777101
  C          -0.85497081789041     -0.03708493636208     -4.14959991293332
  H          -0.96640975065477     -1.77357230177010     -2.85794116086176
  H           1.73782656704334     -0.81828365349695     -3.96873253834669
  H           2.52285849940663     -2.96466654777368     -3.03024768214860
  H           0.90872150130543     -3.27990687597428     -2.31792623441290
  C           1.11913681820552      2.15311277269878     -1.30813292014942
  H           1.71339633092586      2.69640317348723     -2.03985444246170
  H           1.31591012944690      2.55288140012464     -0.30872261336378
  H           0.05743216113806      2.26888394139885     -1.54415714862178
  F          -0.80928766159798     -2.64663212148641     -0.28210723345246
  H           0.14937441910095     -1.88343167540230      1.28574850027940
  H           0.94724499364714     -3.25673251355974      0.44271702362427
  F           0.00859458768514      0.62155259049134     -4.93332209457187
  F          -1.87789602813348     -0.41115453163385     -4.93722009898485
  F          -1.36292987052819      0.88154726812177     -3.29886767517101
