16
Coordinates from ORCA-job NEB E -36.791538211520
  C           0.72314990261456     -0.96263055375125     -0.30558624695315
  C          -0.71410352550225     -0.54583216984909     -0.25546214077545
  Br          1.07693514679026     -2.20322697728339      1.17864285179096
  H           0.98932770689200     -1.53279806969463     -1.20532137458221
  N          -1.64788221055987     -1.57551914545032     -0.53007144507586
  C           1.44145928395628      0.35864957536042     -0.05777927936150
  C           0.51127951348272      1.08691667969439      0.84933959915762
  C          -0.68461215601972      1.66922706629775      0.21275196803238
  O          -1.21843446369275      0.67124762143201     -0.60615714470420
  Cl          3.08429563029559      0.21069035154726      0.60376512732695
  H           1.54018595379486      0.88493073434923     -1.01764057089880
  H           0.84391085778468      1.40740608718197      1.82089250967463
  H          -0.47613444493050      2.57645817186844     -0.37300992307984
  H          -1.45100738235747      1.92997612970956      0.95341452946794
  O          -2.81935791092408     -1.26586927575893     -0.64603920092459
  O          -1.19901190162432     -2.70962622565342     -0.62173925909487
