16
Coordinates from ORCA-job NEB_reactant E -36.851146374100
  C           2.22003695212734      0.22153398986351     -0.55686226434273
  C           1.57988150885290      1.02403484792507     -1.41268056955398
  Br          3.04272464183762      0.66434481506324      1.06617771276519
  H           2.27819714945216     -0.83079602700885     -0.79329523477884
  N           1.02732119052033      0.36854087318923     -2.61891535579588
  C           4.04900788471973      2.95327985250280     -1.86231531839307
  C           3.41807895415965      3.32517834328667     -0.76012306069432
  C           1.92633171769101      3.25472024082988     -0.60309103041092
  O           1.30372046726861      2.32640441123377     -1.47706618946119
  Cl          5.75452439721233      3.02418464091061     -2.02184974546878
  H           3.54564792331720      2.58393870499944     -2.74377177462642
  H           3.95875727615535      3.70315622541627      0.09347707356859
  H           1.47327243310526      4.21306017747906     -0.87888924951305
  H           1.66389977329945      3.04034809168743      0.43834640976391
  O           0.61228788965319      1.09675438075487     -3.48054410853407
  O           1.04110984062786     -0.83978356813302     -2.65179729452444
