16
Coordinates from ORCA-job NEB_product E -36.847166398090
  C           3.05518370749685      0.97940684750576     -1.49044708833849
  C           1.58576113147044      0.91642845366856     -1.74313942614684
  Br          3.19241002111184     -0.07631446637969      0.16972988213233
  H           3.61929088109452      0.41182427348614     -2.23497846837338
  N           1.15158152049866     -0.44585513061719     -2.35611666475399
  C           3.58266487952141      2.39732884232425     -1.32934718924111
  C           2.96337695233700      3.16452643157567     -0.21100522890815
  C           2.43713614904928      4.36587177190424     -0.36000914009292
  O           0.73506829628337      1.70493418421886     -1.51107975965878
  Cl          5.36725935780724      2.28988569074905     -1.05241714491608
  H           3.45186378255666      2.92213693008383     -2.28110139561132
  H           2.99798896724078      2.68552442386011      0.75722632185819
  H           2.40444469503888      4.86188199904856     -1.31585162639435
  H           2.00881906858629      4.89588172420437      0.47168455662046
  O          -0.02496337959269     -0.66267782721923     -2.33535220248406
  O           2.02701396949947     -1.13668414841328     -2.81549542569152
