17
Coordinates from ORCA-job NEB E -37.327028959170
  C           1.08021216776440     -0.16528514486728     -0.20926513756426
  C           0.52748443042800      0.62948938171530     -1.23896739906511
  C           0.91764582418533     -1.66850434363146     -0.31318211900259
  H           2.11432153830128      0.06301297453154      0.04267320289690
  H           1.03831018630842      1.56588210391253     -1.48243626423119
  C           0.07006800466749      0.55510358051155      1.22405006494987
  C          -1.27163693265223      0.44351487226160      0.83461556456760
  C          -1.67058369566941      1.11131220494586     -0.35763685569102
  O          -0.72425657869132      0.52180535224711     -1.53683528464763
  I           0.58991225525794     -0.31431673003097      3.09642968664442
  H           0.52409387632668      1.53755258744921      1.18625720064409
  H          -1.85693232769656     -0.39322071920686      1.17929423668097
  H          -1.42652705461359      2.16846260643168     -0.43063100724115
  H          -2.67179722240577      0.89346367739036     -0.71001444783096
  Cl          1.91247235756240     -2.52700087362021      0.88097067523895
  Cl         -0.72852266009265     -2.28387286676281     -0.23370626430180
  Cl          1.57573583101958     -2.13739866327715     -1.93161585204710
