17
Coordinates from ORCA-job NEB_product E -37.375149797690
  C           1.66743981226474      0.70896893041496      1.45603238859090
  C           1.00722143760602      1.15172562618238      0.14496957097885
  C           1.42302128600798     -0.78690864701419      1.64031550159131
  H           2.74607371197684      0.84840154355057      1.30071317729721
  H           1.10557562970481      0.41006333937542     -0.66396531685827
  C           1.20002592314852      1.63272650797536      2.58922457035448
  C          -0.07263913286107      1.24891128725047      3.25769254577893
  C          -1.17527906476655      1.96761144779475      3.14476852134649
  O           0.46845201659183      2.20289400737085     -0.01696947606198
  I           2.76075919243256      1.89353002060235      4.09344513298849
  H           1.09277086569098      2.62736919985266      2.14954715334550
  H          -0.04904328098884      0.36238741468186      3.87462856535210
  H          -1.21325632286298      2.85951712522502      2.54117753828675
  H          -2.08668729091648      1.68018824187042      3.63886422849592
  Cl         -0.31290228170947     -1.15556103250068      1.41861431541239
  Cl          2.33383051276220     -1.68890124480634      0.38919035648299
  Cl          1.94693698591891     -1.39682376782588      3.21635122661794
