20
Coordinates from ORCA-job NEB E -53.733560550000
  C           0.86763236441797      0.28030746449905     -0.43256596894480
  C           0.02377074891291      1.01290112841015      0.42727717927894
  C           0.66804462827072      0.52740903522424     -1.91969331361292
  H           1.93232676950281      0.30461439585223     -0.20566532022112
  C           0.53793227058693      1.32896981238334      1.82314292284334
  C           0.28642795429980     -1.48005183994160     -0.07686060284380
  C          -1.09204943028415     -1.41389303747300     -0.29686432190873
  C          -1.85860650274622     -0.49762134534027      0.50205436955281
  O          -1.27084163423581      0.94147286387827      0.26922498798774
  I           1.40741962374652     -2.88630534223710     -1.21399136722481
  H           0.64105229248536     -1.51197768730210      0.94640744401706
  H          -1.50154265935213     -1.73953447941805     -1.24105104180208
  H          -1.75499935155627     -0.61515161985714      1.58022492373910
  H          -2.89618840623941     -0.38880624858470      0.20446986215591
  F           1.61681128482543     -0.05832760334240     -2.65538099105206
  F          -0.50497642361881      0.13368954652856     -2.41361050589978
  F           0.76583787538412      1.84147499834783     -2.16863287840393
  F          -0.16119480032648      2.28607146462421      2.42142024450106
  F           0.46909084979961      0.23980962477176      2.63529402582665
  F           1.82405254612710      1.69494886897673      1.81480035201143
