20
Coordinates from ORCA-job NEB_product E -53.763441326810
  C           1.58610708564394     -1.74084009839814      0.42554405975386
  C           0.85572653101742     -0.72321339103027      1.28552038793362
  C           1.32068092023503     -1.42404132516683     -1.05193174537447
  H           2.66909265902636     -1.65480235657127      0.56904707782494
  C           1.75009031114229     -0.16504098039704      2.43462417812688
  C           1.09429909089968     -3.13240221649153      0.88790477839004
  C          -0.28143820581441     -3.46573707706883      0.42900812714771
  C          -1.29926511225229     -3.58178083595500      1.26286717922680
  O          -0.28812403599628     -0.40899813854521      1.18303410241113
  I           2.49765851183826     -4.67734660776475      0.25668320742738
  H           1.14836502336324     -3.16162493741912      1.97835009934570
  H          -0.41188661546596     -3.62208213936488     -0.63198470093452
  H          -1.18901653513543     -3.43972339186106      2.32577292948185
  H          -2.28634709429919     -3.81960082171756      0.90952761187623
  F           1.82406842068809     -2.34884938178391     -1.87038399236604
  F           0.03212672846488     -1.29498427312108     -1.35976204371246
  F           1.91282602432790     -0.26360692245151     -1.36975100669790
  F           1.11310908735005      0.71805492652066      3.18654234025424
  F           2.14901634136989     -1.17386762215161      3.22935073360653
  F           2.85631086359653      0.40958759073897      1.95203667627848
