20
Coordinates from ORCA-job NEB E -49.344897995090
  C           1.19209321170559      1.12890509153036     -0.67775874651293
  C           0.24612842446323      0.93422056609413      0.24889700317075
  C           0.92846011965050      1.11434942479977     -2.14042251896412
  H           2.20693786858905      1.33754185471688     -0.37886205507834
  C           0.64317964784949      1.02028913560444      1.71975026464107
  C          -0.38694971775640     -2.51946826073899      0.26306379734012
  C          -1.04577176196489     -1.52677002865060      0.83232691555043
  C          -1.74674388428714     -0.46025870145278      0.05189137066412
  O          -1.05268999264892      0.81051447291335     -0.04483211447607
  H           0.10264914416008     -3.27846562441277      0.84827824141875
  H          -0.31325078959762     -2.61461458766711     -0.80757415421675
  H          -1.10804968679620     -1.45364182458506      1.90828904998536
  H          -2.71140731539195     -0.21743525781256      0.50629322788736
  H          -1.90332422240780     -0.79598821450550     -0.97919534390647
  Cl          0.39507933841262     -0.49974713444887     -2.67592230496673
  Cl         -0.33748816816508      2.29020428442803     -2.58026521740456
  Cl          2.40769350032356      1.52073656405668     -3.03244208896872
  Cl          1.65075679893706     -0.38077330494247      2.16662501276713
  Cl          1.60595594194514      2.49400669075876      2.00358312581833
  Cl         -0.77325845702031      1.09639485431432      2.76827653525128
