22
Coordinates from ORCA-job P E -31.372844592930
  C          -1.36038836354180      0.42101121666204     -2.35489557021427
  C          -0.04662880211506     -1.62197855125578     -1.02818098996411
  C          -1.39858183482383     -1.89258420995848     -1.60879617297379
  C          -2.02160844468710     -0.92212701884392     -2.25817400553132
  C          -0.87557751142770      0.81355564235588     -0.94586099721081
  C          -0.04166105040758     -0.28305358613629     -0.25151129509411
  H          -1.82433658891845     -2.87561620707781     -1.48703204097653
  H          -2.99692076591194     -1.05052164726447     -2.69947943085032
  C          -2.29250254584705      1.48642364963520     -2.92117186169137
  H           0.26861671526249     -2.42439659627511     -0.36196198881005
  H          -0.49143780742196      0.33146326686183     -3.02421383393515
  H           0.68191719041486     -1.57047731377770     -1.84667936002231
  H          -1.76137125576193      1.01221621707877     -0.34033865767596
  H          -0.44791248862172     -0.47112442468726      0.74507243017090
  H          -0.31164049316045      1.74901398845194     -0.99670850410109
  C           1.40704091364504      0.14012692198428     -0.05811065127421
  H          -2.61668957715811      1.21284189855457     -3.92256920666840
  H          -1.78947999476404      2.44974752462800     -2.97426965618254
  H          -3.17241193782942      1.59360858440801     -2.29070900982129
  O           1.99285991685653      0.05793991967591      0.98168847091647
  O           2.01755700453291      0.60345863951570     -1.16288902748121
  H           1.41790772168629      0.61821208546471     -1.92206864060853
