29
Coordinates from ORCA-job NEB E -47.248946599770
  C          -0.42427119560070     -0.50821106539317      0.64385290233187
  C          -1.75081206835938     -0.56351105575147      0.19678370320259
  C          -0.17159163626606      0.15677512598211      1.98603591014212
  H           0.14521407628756     -1.42252260918180      0.51411385479735
  C          -2.11213363140342     -1.66926767303086     -0.79243087876480
  C           0.35342436100119      0.74401268949950     -0.68227777672922
  C          -0.72756620062297      1.37520262386816     -1.30837955426894
  C          -1.78127159084909      1.87370017848052     -0.51642318904362
  O          -2.49140507791018      0.49067720100997      0.15139998588404
  C           1.31760274420107     -0.01663247433188     -1.56632750943077
  H           0.83190633966653      1.30510353256073      0.11016548424370
  H          -0.98176741539371      1.04605951228929     -2.30900165253664
  H          -2.63750663932588      2.30152290310180     -1.02002211619634
  H          -1.51828944834173      2.39816819826899      0.39571525538024
  C           1.27302677517209      0.07380562562835      2.46118794509853
  H          -0.79642521491834     -0.37090829470470      2.71290396441416
  H          -0.50900538600548      1.19326230746905      1.97612907399457
  H           1.60507230469999     -0.96137531386065      2.48928935194485
  H           1.35113752096214      0.48212328265811      3.46601738519796
  H           1.94739752360828      0.63291278966277      1.81820840038197
  F          -3.42886659241399     -1.87618622024132     -0.86740672468413
  F          -1.69832682285278     -1.41197221782456     -2.05612699226148
  F          -1.54761408221125     -2.84453213021931     -0.46098898609494
  C           2.59356868400691     -0.46203762438508     -0.86343656659492
  H           1.58965885234473      0.63872371881645     -2.39884540580817
  H           0.81213135808653     -0.88178160315516     -1.99904212961252
  H           3.12449402867619      0.39382010658726     -0.45146587237508
  H           3.25221710585070     -0.95833792624500     -1.57199706269249
  H           2.38000132791106     -1.15859358755811     -0.05763079991988
