29
Coordinates from ORCA-job NEB_reactant E -47.288890043460
  C           1.91061212119874     -0.05249603239589     -0.19986301172180
  C           1.50931575241697      0.17967276222625     -1.44655213912612
  C           1.87415697008790      0.95064537434448      0.90282899304973
  H           2.29725191993724     -1.03156300595755      0.04491105826730
  C           1.60485156049145     -0.93677536732203     -2.47215911119694
  C           3.85744124129930      1.76011448790891     -3.78452865157140
  C           2.54764636239197      1.89464717267017     -3.65619596975123
  C           1.87318825753891      2.32509773023554     -2.39075810023449
  O           0.95209800630747      1.34717624540021     -1.88514987639431
  C           4.55209454752908      1.32815276150942     -5.03387796566475
  H           4.50728935711539      1.97650317662708     -2.94457728680735
  H           1.88328398133747      1.67015451381557     -4.47901868970451
  H           1.24194125592789      3.20021179422357     -2.56830032181094
  H           2.61840018686309      2.56194327722214     -1.62063310895342
  C           3.28131037121513      1.23456803600930      1.42978817433196
  H           1.26558298220943      0.54729067467354      1.71596403995873
  H           1.40610821792685      1.86985770557495      0.54980544543548
  H           3.74175438431667      0.32138402131684      1.79908370239822
  H           3.23857352933061      1.95449634245964      2.24288352611805
  H           3.91096613447464      1.64026036022382      0.64112157281907
  F           0.94718862383913     -0.67798828509381     -3.60130274425390
  F           2.88330025507371     -1.20163838816288     -2.82137545552490
  F           1.12008581491191     -2.09961209839826     -1.99661177102556
  C           5.48689019580191      0.14971528231933     -4.76554845307370
  H           5.13824298789301      2.16801341142652     -5.42016567918883
  H           3.81490379049665      1.05374803992620     -5.78974230258777
  H           6.24947205997065      0.42436707037930     -4.03995366339416
  H           5.97992553125308     -0.15850445290865     -5.68421335421808
  H           4.92512360084373     -0.69284261025369     -4.37135885617436
