29
Coordinates from ORCA-job NEB_product E -47.292962009890
  C           2.69734114884509      0.34606293878633     -1.82135606306640
  C           1.53221113161599     -0.25960863892691     -2.54563063929185
  C           2.14862948045294      0.80904913795572     -0.45014913011765
  H           3.45077574193056     -0.42670389083310     -1.64343530694187
  C           1.53133074161013     -1.82240623906871     -2.49195198422218
  C           3.35168623750350      1.50481314601650     -2.60971231627730
  C           2.43727870885236      2.68829298658040     -2.73376759907040
  C           2.73081998549975      3.89434940106555     -2.28546753990226
  O           0.62409895862279      0.30074020999809     -3.08653676991145
  C           3.79970120816402      1.05908828886844     -4.01273075747111
  H           4.24504095910370      1.80585044486646     -2.05363077910692
  H           1.50607234016651      2.50566504375359     -3.24982428829476
  H           2.06151307804587      4.72768127250957     -2.41304856683745
  H           3.65739116768078      4.10513736203718     -1.77504537058252
  C           3.25978241479992      1.21403581275481      0.50873027598686
  H           1.57998875289162     -0.00916718382019     -0.00246638441130
  H           1.46964905598202      1.64747102278767     -0.61169316914593
  H           3.97610531156367      0.40518111496986      0.63210125198886
  H           2.83267381840037      1.44383727009709      1.48145713200515
  H           3.78285952367395      2.09611769966853      0.15223171617722
  F           0.44855792278027     -2.35407063255611     -3.05206830895442
  F           2.60254634579312     -2.33077415015693     -3.12367552686275
  F           1.58965949017582     -2.26835732249447     -1.22519009146930
  C           4.95528772292441      0.06472863262971     -3.99391814948152
  H           4.11536237538789      1.95310194396109     -4.55586170812549
  H           2.95236658682391      0.63171750729722     -4.55270137718603
  H           5.78801324596744      0.45875474786216     -3.41488023417595
  H           5.30215910592854     -0.11619004519021     -5.00816534191926
  H           4.65789743881304     -0.89049788141932     -3.57071297333202
