21
Coordinates from ORCA-job NEB E -52.957068861290
  C           0.65847573056389      0.29318566871009      0.45886985170821
  C          -0.70213115989906      0.65893380349471      0.81774997857316
  C           1.33316716860122      1.35392766291733     -0.43718299594142
  H           1.26253646652501      0.16745292773854      1.36274519525651
  C          -1.15499961246496      0.34122686891091      2.21577883458636
  C           0.56134438010248     -1.15428165087636     -0.28753132695830
  C          -0.35325596925641     -0.96217583071601     -1.41420588059940
  C          -1.58777477109556     -0.23389463310906     -1.23698217200431
  O          -1.65682325630819      0.69747418887256     -0.11364532670720
  C           1.82721038149181     -1.69655927219384     -0.72609013331001
  H           0.18768357594936     -1.80204807006829      0.51633010411127
  H          -0.05394998151036     -1.28786152630620     -2.39485258519422
  H          -2.44225662098839     -0.87995221976864     -1.01556453059162
  H          -1.83528538956819      0.34197224171555     -2.14021306081621
  Br          0.43462752690943      3.10109395953239     -0.25272349243138
  Br          3.20791253604565      1.60568886466248      0.11286662846257
  Br          1.38465664953609      1.03580933926906     -2.36457467799951
  F          -0.77098988711911     -0.92559354827063      2.57766898831251
  F          -0.59479537967474      1.13507236402892      3.13297421108041
  F          -2.46631879683514      0.39065804400595      2.35665666115844
  N           2.76096640899518     -2.18012918254942     -1.16807427069583
