21
Coordinates from ORCA-job NEB_product E -52.997730573080
  C           2.11287651877040     -1.55108313315735     -0.33554214397136
  C           1.06879667709741     -1.25669154549245      0.72396602987692
  C           2.25677711169510     -0.36043130444822     -1.27533209621065
  H           3.08868556196665     -1.69488294578985      0.14936190945517
  C           1.51820750971900     -1.68730302399336      2.15324150404040
  C           1.71573313423000     -2.92130078604679     -0.98602668052985
  C           0.69064728564124     -2.83161697030766     -2.08560383599175
  C          -0.58031470951494     -3.13824434429465     -1.90365849853711
  O          -0.01787582219673     -0.80333267999726      0.53701616391636
  C           2.90570837831124     -3.59389906605254     -1.47339800836327
  H           1.31606278176642     -3.55519295298149     -0.18195848310732
  H           1.06105968972794     -2.53284726319575     -3.05638322500340
  H          -0.96649336438891     -3.45346574898007     -0.94790004929829
  H          -1.29010335413155     -3.06894178666603     -2.70828964725759
  Br          0.61894756822545      0.26294204901314     -2.10152841590174
  Br          2.96066423580443      1.14088066000718     -0.19950483358438
  Br          3.54508694768807     -0.73662407249902     -2.69153874505030
  F           0.61233761380377     -1.39053037381772      3.07069449716595
  F           1.72527311589374     -3.01600113599780      2.18921962526906
  F           2.67275749024575     -1.10513457005855      2.49334161855626
  N           3.82316562964551     -4.15839900524376     -1.84957668547312
