18
Coordinates from ORCA-job NEB E -37.800941721960
  C           0.86358674688133     -0.24762920373301     -0.78206899882242
  C          -0.24497791396520      0.33985626503277     -1.43874922853545
  N           0.81248897180116     -1.66036765080886     -0.50509938954714
  H           1.84745086410855      0.06833175811219     -1.11284064216022
  O           0.04319465683039      1.34660661497582     -2.28601882251134
  C           0.54100412754631      0.47090479551591      1.04438858198402
  C          -0.75138542466885      0.00431420615361      1.31276572085028
  C          -1.80741699740694      0.50897118177253      0.52794033035024
  O          -1.44808979301929      0.11734598906294     -1.11273961850436
  C           1.63101498108972     -0.03281806544213      1.81077724046241
  H           0.67571111663774      1.51148424790022      0.75961951559146
  H          -0.87383761377839     -0.94377778015526      1.81241609591371
  H          -1.85964272571528      1.58245960726245      0.37664867945969
  H          -2.77290578674908      0.03453219160349      0.62866020274699
  O           1.84426022763182     -2.27253762312996     -0.66822588670767
  O          -0.24121636710355     -2.13420433851482     -0.14554030946873
  H          -0.77236883060986      1.72012664048470     -2.65262863042860
  N           2.51312976048945     -0.41359883609259      2.43069515932712
