18
Coordinates from ORCA-job NEB_reactant E -37.835897666840
  C           1.94413960429478      0.10122953562117      0.32036619208035
  C           1.44025982294151      1.36546539234763      0.30022770184109
  N           1.61037818339799     -0.98708932438200      1.12994287910406
  H           2.68354856636161     -0.12652905554405     -0.43188671238705
  O           1.81350615963263      2.12402601157428     -0.73423745248486
  C           1.78561425055005      2.05064319208719      4.60102762451715
  C           1.75006785627559      1.82146019500327      3.28943124611086
  C           0.48456675686890      1.70049487897843      2.50756732938814
  O           0.66114418163488      2.04633725594766      1.13491571224648
  C           2.99656272991153      2.13951636893473      5.31457735527807
  H           0.88437636542908      2.17854545083471      5.18585029937641
  H           2.67155471186307      1.69055526628818      2.73592152914201
  H          -0.27687699226292      2.39789148153057      2.86424113575250
  H           0.09742576873415      0.67275995639770      2.59075229012279
  O           2.38392591538873     -1.92372159028245      1.14146764860971
  O           0.55310665587761     -0.97353840299145      1.75193773582469
  H           1.44447929583898      3.01571787089330     -0.64218195363665
  N           3.97702016726181      2.23103551676114      5.90107943911427
