22
Coordinates from ORCA-job NEB E -51.869277970940
  C           0.61052184099969      0.72246345995089     -0.07651403684273
  C          -0.57250509970844      1.01217918515412      0.76812563249925
  C           0.46572270428101      1.37484888660528     -1.45326915641195
  H           1.54890173264310      1.02288902893568      0.39107053686981
  C          -0.46523152435392      1.16341101419053      2.15177160124530
  C           0.61206539532580     -0.86877561863775     -0.23859289881331
  C          -0.65748804181190     -1.29426555845593     -0.76862810401874
  C          -1.82278216918098     -0.81241437644493     -0.07305191993792
  O          -1.75408376055557      0.62044565512054      0.27842135229788
  N           1.80572094004991     -1.34245251581604     -1.00360738758488
  H           0.72356557960832     -1.18401148800497      0.82679564660533
  H          -0.70944903453551     -1.86837740377398     -1.67982800767075
  H          -1.83597327948971     -1.27201364806191      0.93891057227702
  H          -2.76927023468204     -0.95752451053205     -0.58926303248444
  F           1.45429991197650      0.95229370694804     -2.29604343578946
  H           0.55895308506200      2.46182857986658     -1.36757453748965
  H          -0.48952585386775      1.11061669579201     -1.91908648683322
  Cl         -0.27971806078112     -1.08640540656943      2.75185666381948
  Cl          0.97511041359439      1.77578479862011      2.83698765600018
  Cl         -1.88329427987554      1.52220819204000      3.04017874844880
  O           2.86983235162117     -0.96712075225752     -0.59077924638812
  O           1.61462738368058     -2.08560792466927     -1.92788015979788
