22
Coordinates from ORCA-job NEB_product E -51.914101677660
  C           2.42706729002299     -1.55019459894988     -0.02546617090979
  C           1.34491381788683     -1.07806466453690      0.91708543536064
  C           2.35051872057279     -0.72563196212147     -1.31772661930763
  H           3.42027943249246     -1.45234308001082      0.42392008302186
  C           1.77921810154158     -0.93044868490447      2.38635925805132
  C           2.19113591318382     -3.05640974477444     -0.30499366590591
  C           1.02678841594170     -3.32937753295055     -1.20342268757597
  C          -0.15663331270747     -3.70118686337471     -0.75339558126022
  O           0.23273998461153     -0.80392446440477      0.57691689135384
  N           3.45838611076766     -3.63702977215546     -0.88544219121298
  H           2.06272161438417     -3.56986032934427      0.65568497979711
  H           1.21228386493361     -3.20209218253468     -2.26003946428712
  H          -0.35264830688872     -3.84218462594708      0.29697709987419
  H          -0.98231651700917     -3.87270332901303     -1.42023996499950
  F           3.15962174208642     -1.27533608861463     -2.27203803331199
  H           2.70174059063559      0.29574042543262     -1.14419319957262
  H           1.33132103008494     -0.71515371837253     -1.71522369865012
  Cl          2.69193326307077     -2.33783030010838      2.96083037666732
  Cl          2.84001511056546      0.50901872137546      2.39718203905261
  Cl          0.38542430702261     -0.65408468140816      3.43173770535408
  O           4.49249390321989     -3.27528169847677     -0.38989069577639
  O           3.33029492358053     -4.45622082480509     -1.75152189576273
