22
Coordinates from ORCA-job NEB_reactant E -51.903657699740
  C           2.00943959101380     -0.04713957015598     -0.09716994629072
  C           1.55360467611236     -0.93071039641406      0.78585321054516
  C           1.52957465039196      0.12544159820694     -1.50284218258435
  H           2.78306488048932      0.64469020995264      0.19573196688272
  C           2.04439606529091     -1.00441817763668      2.21327836731695
  C           2.12552084222604     -4.82320219907857     -0.52268284885034
  C           1.98171774004998     -3.50546144794558     -0.49978633819034
  C           0.66923799089385     -2.79247505644555     -0.46921003481646
  O           0.56504135718090     -1.85976237679785      0.59439465946726
  N           3.43350307587353     -5.42155606441154     -0.56580731456333
  H           1.32168077522760     -5.54269276897400     -0.50045778979383
  H           2.87207003939389     -2.88686793904087     -0.50306290689688
  H          -0.15307007924456     -3.48948374458842     -0.29176585240118
  H           0.51450396602631     -2.30365894142230     -1.44192668908774
  F           1.94079481209884      1.33873634999924     -1.98191956610349
  H           0.43492331664561      0.11542551301250     -1.56575552089460
  H           1.95577246477931     -0.62922186826516     -2.17933146340362
  Cl          2.78468020652115     -2.61551216565920      2.47847334920002
  Cl          3.23144463097983      0.22642850656197      2.63191731920151
  Cl          0.64656861385000     -0.84687560814868      3.30436910376096
  O           4.39241155268060     -4.69079738061598     -0.66942049800530
  O           3.47491883151879     -6.62858647213287     -0.49517902449240
