23
Coordinates from ORCA-job NEB E -48.812039181520
  C           0.42044060803385      0.94916741761881     -0.23260310248309
  C          -0.92901007766059      1.06650365933391      0.13517897768089
  C           0.80455622647594      1.27796957045212     -1.65515504823246
  H           1.12760121070447      1.33599557439907      0.49374857605095
  C          -1.29750159116363      1.40919249236905      1.57777490153297
  C           0.65547832542470     -1.00839907469387     -0.22636305538935
  C          -0.60115194219415     -1.58350487774132     -0.00519817077234
  C          -1.64040061730771     -1.15822205650430     -0.86317474143735
  O          -1.85862185994856      0.47568928705327     -0.53633608147949
  C           1.77720341991137     -1.32088495069504      0.72521993184958
  H           0.99851990508445     -1.02959715309755     -1.25476640472081
  H          -0.86393485642885     -1.87916849851143      1.00153516769329
  H          -2.63506663948471     -1.53705251448799     -0.66853113185080
  H          -1.40700762277967     -1.09492208860376     -1.92094164487938
  H           0.08986875941859      0.87085525000130     -2.36506241204623
  H           1.80530857962770      0.92474329040646     -1.88741666670218
  H           0.80279462563283      2.36285140309535     -1.75897055998143
  F          -1.44298463923385      0.28257102875081      2.32941922134979
  F          -0.34115412923902      2.14976260224071      2.17985715375237
  H          -2.25000711763011      1.95853094292702      1.62988203719899
  Cl          2.13938525335537     -3.07400011190278      0.62326123677332
  Cl          3.26071802218038     -0.45047693291878      0.27046094509848
  Cl          1.38496615722123     -0.92760425949106      2.40818087099428
