23
Coordinates from ORCA-job NEB_product E -48.859273136810
  C           2.84652325519372     -1.81220179737464      0.73748861055176
  C           1.67349934285371     -1.59325285879663      1.67576529527871
  C           2.45611732185854     -1.21104402157695     -0.61781508464400
  H           3.73183535925617     -1.29883608348277      1.11953101071774
  C           1.90762763264693     -0.54532537531337      2.79161542066603
  C           3.19933824008118     -3.30908954170778      0.56534195570228
  C           2.02164778076903     -4.14385618791706      0.14467776327084
  C           1.90901509741849     -4.67276196008239     -1.05870201080303
  O           0.57434750230046     -2.04442289365468      1.51646702134384
  C           3.81011291351823     -3.86924727050060      1.85074133803117
  H           3.97319625027201     -3.37382241073217     -0.20787450565476
  H           1.24920860760914     -4.28156523461573      0.88541502185504
  H           1.05100888970173     -5.25868227115704     -1.33693800592165
  H           2.66750828597082     -4.54500243049114     -1.81408099127995
  H           1.56867044825039     -1.70631337732291     -1.00305177263678
  H           3.26965680532320     -1.33853806884230     -1.32673359532631
  H           2.24933679084785     -0.14839950130267     -0.51706119803131
  F           1.19591954630826     -0.84640777638046      3.89401614370464
  F           3.20270606967571     -0.45153097597158      3.16856589729714
  H           1.58606600801821      0.45156020071547      2.43973260963377
  Cl          4.11711548696421     -5.61100755001069      1.66079367468323
  Cl          5.36390124613098     -3.07658497839295      2.21449878602749
  Cl          2.72294111903101     -3.63196763508893      3.23680661553411
