15
Coordinates from ORCA-job NEB_reactant E -27.342454057160
  C           1.94187782047806      0.31535182674090     -0.39299843938867
  C           1.09806000091631     -0.51093276979593     -0.99991990055228
  Cl          2.46756785551459      1.88325099429065     -0.91418871292259
  H           2.39001217355249      0.02271889245417      0.54085326505867
  H           0.89148267391244     -1.45662561227375     -0.51291669693818
  C           2.28081378230308      1.83405166034304     -4.30916427137140
  C           1.82278043110470      0.74488799337627     -3.69523762608655
  C           0.49977344162875      0.67364348181027     -2.99867539080921
  O           0.38623499763599     -0.44629534604139     -2.14091282727155
  C           3.52005198409503      1.85497171337312     -4.97597890885001
  H           1.72483778775736      2.76268021108074     -4.32062859631956
  H           2.40072944428438     -0.16991099106547     -3.69330792432971
  H          -0.29111893174325      0.51593028222321     -3.74336008488501
  H           0.28332555614358      1.60438127549037     -2.46204373599278
  N           4.52727098241648      1.88099638799382     -5.52342014934118
