15
Coordinates from ORCA-job NEB_product E -27.341469755370
  C           2.03056822115259      0.00985265337255     -1.80594100827124
  C           2.07306777282156     -1.48135778029520     -2.07441775981430
  Cl          3.57125802048383      0.52792194676876     -1.05247008952891
  H           1.24356856296402      0.19632585345113     -1.06546470662227
  H           2.73564629927097     -2.03696218674936     -1.38871173161864
  C           1.73143997316542      0.81283971971978     -3.08362145316412
  C           1.42609227195340      2.25784211040366     -2.78667742461685
  C           0.31397583470710      2.85707684632761     -3.16412261749869
  O           1.43922708823696     -2.01976043577962     -2.93201741636118
  C           2.86625946139387      0.74653884379818     -3.98402228599424
  H           0.87812736546692      0.33516872699013     -3.58257276142135
  H           2.19639505023799      2.78546110362909     -2.24221207376049
  H          -0.45567360946662      2.34152187447241     -3.71545890292240
  H           0.12830160079720      3.89277690040099     -2.93914749821881
  N           3.76024608681478      0.72145382348991     -4.69344227018650
