19
Coordinates from ORCA-job NEB E -40.775140034600
  C           0.13136200013718     -0.21304015179101     -1.00660721244372
  C           1.35669015271264     -0.87696829663442     -0.95678317564916
  C           0.12225659447994      1.22983508886357     -1.30877246848716
  H          -0.73458636490437     -0.77279471668360     -1.33128596169218
  O           2.47190453767174     -0.15945209815551     -1.03089703428340
  C          -0.30671137541884     -0.81352855950830      1.04155584382520
  C          -1.57259829441379     -0.10185677979311      1.20958604238277
  C          -1.66912845762589      1.03568080620988      1.88752219419766
  O           1.45669697305000     -2.13592402108257     -0.71684932414254
  O          -0.28200306678700     -2.06478644099838      0.90550442578008
  H           0.56607074499957     -0.30302356858890      1.48132128808336
  H          -2.44420046536465     -0.59608535019387      0.80335630917016
  H          -0.80559846588150      1.51965861798445      2.31413572209269
  H          -2.61875024102306      1.51764298641266      2.04155025258271
  Br         -1.68581186115390      1.92775852462742     -1.43373306068314
  Br          1.08457766820052      2.28017575754407      0.02599905013010
  Br          1.00069846914288      1.63401527258215     -3.06641433472219
  H           3.25244066362619     -0.72097860110752     -0.90656795477866
  H           0.67669078855234     -2.38632846968703      0.04737939863741
