19
Coordinates from ORCA-job NEB_product E -40.820141716080
  C           1.68252273531545     -0.94782931494100      1.50212833332361
  C           2.84109620145792     -1.95286722260955      1.28851070375486
  C           1.38463977329148     -0.21435819453038      0.21174294655473
  H           2.03625993366202     -0.20983760800635      2.23825724122229
  O           3.17445780586480     -2.63893166699782      2.36592845833721
  C           0.46546211694550     -1.64957738426031      2.14795472116820
  C           0.03254212109866     -2.89264034358754      1.42005559553446
  C          -1.21457193448689     -3.10177006393557      1.04100239309604
  O           3.39301633363073     -2.07794369079557      0.23524082460878
  O           0.87780102574861     -1.95403149538848      3.48183964956576
  H          -0.37593334575793     -0.94181009285396      2.19421017480052
  H           0.80098028377294     -3.63640360210530      1.25825287685482
  H          -1.98724540673704     -2.36563618985315      1.19502578708086
  H          -1.50556768830851     -4.00634693406338      0.53789775605093
  Br         -0.09227810870316      1.04575303642115      0.44325808593245
  Br          2.93785077109010      0.83957996713679     -0.31999887152405
  Br          0.92033685173042     -1.39247939312223     -1.25519062533148
  H           2.54787863677892     -2.48417615952556      3.10653861681408
  H           0.16965189360598     -2.43069364698181      3.92834533215594
