19
Coordinates from ORCA-job NEB_reactant E -40.810031356030
  C           1.26642555771554     -0.03423650473525      0.09500183726841
  C           0.82359319406859     -1.21971414873336      0.58309249216361
  C           2.43893337364636      0.12056767530778     -0.74335476037396
  H           0.70518033228404      0.84688509966700      0.35367907497422
  O           1.38860089163599     -2.41184142230749      0.36081781900053
  C          -0.09189456071558     -2.67718481566760      4.32239084345388
  C           0.19828339910304     -2.89354366817784      3.04523316418700
  C          -0.69466966878128     -2.46022699848829      1.92735225687920
  O          -0.26474573039263     -1.21907828487632      1.33925365841742
  O           0.66785987068246     -3.02085688652345      5.37681187059616
  H          -1.01126665519507     -2.20303532010647      4.63639627976602
  H           1.13185831693163     -3.36086332178825      2.76317959295330
  H          -1.69755581237676     -2.23603322598966      2.29264665801534
  H          -0.74171843236633     -3.22731683930920      1.14829488213204
  Br          2.76087926501558      1.96148086580334     -1.22763006478362
  Br          4.12976227276263     -0.57045479881199      0.13868696359827
  Br          2.31874016837344     -0.94235030665189     -2.47636265158525
  H           2.14169353980020     -2.36384391709525     -0.24477197630653
  H           1.49014067780817     -3.43305318151581      5.07968205964396
