20
Coordinates from ORCA-job NEB E -34.580362443360
  C           0.31301085106070     -1.51360531595601      0.02689604469936
  C          -0.62343989695442     -1.22655946013995     -0.97182578939291
  C          -0.10458505961724     -2.21558934196512      1.17134143206852
  H           1.34111711793201     -1.66775338817532     -0.27241812726903
  O          -0.11814745236014     -0.98785856557741     -2.21134831431217
  C           0.37316730304797      0.44676651144838      1.00415281564976
  C          -0.73770335040955      1.07340522680707      0.43663913320114
  C          -1.97494811285715      0.45687058726185      0.51604617598744
  O          -1.82460817273378     -0.93576154077678     -0.74207390670860
  O           1.64659059283043      0.83092932569698      0.84878249192506
  H           0.25624985396582     -0.05107160780557      1.96004561592445
  H          -0.57919812073436      1.79155121232691     -0.35663078467078
  H          -2.83627311055784      0.92161762937089      0.06541623947363
  H          -2.18203277884536     -0.20150493347647      1.34586848037698
  N          -0.42891725036126     -2.76971068641749      2.12239979314186
  H          -0.83968040873857     -0.71808222239280     -2.79746383416069
  C           1.99669968047531      1.55458469510221     -0.31667972880994
  H           1.61244280652986      2.57740943744028     -0.27837478752162
  H           1.62560439353842      1.05413846268461     -1.21517464508258
  H           3.08465111478916      1.58022397454375     -0.33559830451989
