20
Coordinates from ORCA-job NEB_product E -34.623025409030
  C           2.58354144456714      1.22192545806816     -0.43907404646755
  C           1.51488014331504      0.38143633458687     -1.12709709579747
  C           2.57885604798102      0.87239505886126      0.96203483307135
  H           3.55843308960347      0.95888753317393     -0.86331891922373
  O           2.05139085150176     -0.69921808429340     -1.69458942544758
  C           2.26617896907895      2.73734310916043     -0.63621315463294
  C           2.36999013119504      3.04663658294435     -2.10656105275810
  C           1.37067545228143      3.53359395453202     -2.81619329437570
  O           0.34693454576866      0.64000651811946     -1.15910376923806
  O           3.03608888199763      3.57208607065098      0.19436241489201
  H           1.23744832455796      2.90700274237733     -0.29786320668273
  H           3.32543754679711      2.83408322217400     -2.56893103271345
  H           1.46883969430775      3.73733823091245     -3.86912543811735
  H           0.41191867537125      3.74064221740472     -2.37201324452642
  N           2.57840020292151      0.59100547903862      2.06870380775485
  H           1.36836788522315     -1.25373662238683     -2.10571966968369
  C           4.42076652812512      3.64667375970104     -0.06032160557352
  H           4.63325725170915      4.08186935095503     -1.04191768317941
  H           4.91091956184555      2.67100956127745      0.02262757206389
  H           4.81837477185129      4.30291952274214      0.71131401063560
