20
Coordinates from ORCA-job NEB_reactant E -34.620680936670
  C           2.20168707306980     -0.05210546748801     -0.63071904313400
  C           1.60057777802804      0.36400091052325     -1.76229289564600
  C           2.36011914642374      0.65367388203550      0.56123824870583
  H           2.62293558500668     -1.04641011513955     -0.64206327912062
  O           1.56303062038102     -0.46202154889589     -2.82166926633745
  C           3.27522644557291      3.14975968132586     -1.57746059995781
  C           2.23892689912868      3.18492192842033     -0.74827343564564
  C           0.91452241360211      2.55291395734474     -1.06207138218661
  O           0.97964675924906      1.52463546030907     -2.03903882008484
  O           4.51482826447011      3.64278149212122     -1.38581685671578
  H           3.21424055488905      2.67984265708972     -2.55085303028836
  H           2.29234717890512      3.64921368361121      0.22166891641515
  H           0.22411033028268      3.28401282988483     -1.49883863926923
  H           0.46703255174355      2.16041891556901     -0.14152090261534
  N           2.53904930893429      1.17350161818467      1.57186577256948
  H           1.09008210093920     -0.02499675355034     -3.54342934041629
  C           4.79412255114617      4.22403717121262     -0.13079843141838
  H           4.60213730976405      3.51507412840665      0.67960211963817
  H           4.19581353928142      5.12626471136827      0.02806532081039
  H           5.85026358918232      4.48568085766680     -0.15059445530268
