21
Coordinates from ORCA-job NEB_reactant E -45.907159376730
  C           2.55723907458308      0.08230569570188      0.28458631596452
  C           2.05747910909002      0.27881707739067      1.50881911903167
  Cl          2.97436891965665     -1.41792450730453     -0.46239809345252
  H           2.75626147912629      0.94384180683105     -0.32717378683695
  O           1.84496027609801      1.57291118085609      1.85766970723985
  C           4.37956613797450     -1.54838457643417      2.69545045062428
  C           3.38766945379011     -2.35964706399965      2.36594742947016
  C           1.94341135122173     -1.96989124105601      2.35130420833502
  O           1.70613902588411     -0.58712810496447      2.49089704749513
  C           5.81070676377596     -1.97600965599681      2.70047155165255
  H           4.23654567670734     -0.51470548046156      2.97100322952160
  H           3.58132454824662     -3.38767066658002      2.09429239127232
  H           1.44822821783515     -2.41761046796815      3.22148842762667
  H           1.46341588331729     -2.36070369269648      1.44787138032619
  C           1.22671741192794      1.82423124467533      3.10821265895191
  H           1.13618432562544      2.90662008727682      3.16551409832485
  H           1.83761296200956      1.45745189585335      3.93625807115244
  H           0.23797399060191      1.36358686950331      3.16130091623813
  F           5.98705119057394     -3.26468068388422      2.38129555982439
  F           6.55412634764075     -1.26054511767122      1.83907194831630
  F           6.37671785431360     -1.80286459907123      3.91061736892150
