21
Coordinates from ORCA-job NEB_product E -45.938070911640
  C           3.66180284048806     -0.03162578982580      1.80872499427932
  C           2.47434195810101      0.55514383215467      2.57759245734299
  Cl          3.33386991857600     -0.01023085321391      0.05740029691099
  H           4.52263944122630      0.62712330204170      1.97302817304379
  O           1.85481979114007      1.49499293854392      1.88780477282558
  C           3.96473752121337     -1.44386050970724      2.32903299659731
  C           2.93983046580766     -2.45103952079172      1.87836530669884
  C           2.06248107838664     -2.99864426354462      2.69579466265702
  O           2.18368589912961      0.21309516230408      3.69182657729682
  C           5.36060124918795     -1.90009440724308      1.91366704129836
  H           3.96563602812561     -1.38483840142708      3.42452799314940
  H           2.96271117373536     -2.69259339207437      0.82544100604873
  H           2.03205992903388     -2.75267968110569      3.74395675217571
  H           1.33441594626567     -3.70768555356992      2.34280050486150
  C           0.74972438817321      2.12498282415347      2.52855195111546
  H           0.40526843153769      2.89531449097418      1.84424263956093
  H           1.06319480414924      2.56141092600476      3.47844380101712
  H          -0.04010148899384      1.39612335752201      2.71746637501488
  F           5.49203728832270     -2.12687958680265      0.60502632490932
  F           6.30234670849239     -0.99754426315680      2.24211850317610
  F           5.69899662790142     -3.03907061123591      2.53508687001984
