22
Coordinates from ORCA-job NEB_reactant E -43.955181615030
  C           1.44470307014603     -0.07602065702572      0.18115293734650
  C           1.73954607499024     -1.35721023376650     -0.03724633909476
  O           0.82982651557245      0.71818148519079     -0.75044132659848
  H           1.63838675765157      0.44059281305682      1.10208542158223
  O           2.35431910675346     -2.22455251109598      0.82650960189697
  C           4.07001855223822     -3.52636879790513     -2.94084974623111
  C           3.46849278120410     -2.97860145607781     -1.89737202734005
  C           2.00963388804670     -3.13847294136676     -1.60153131149386
  O           1.39286324191055     -1.91956194291733     -1.24889267220044
  C           5.50924433184875     -3.43150754522330     -3.26288094950125
  H           3.51424252152862     -4.12471241355938     -3.65324996547504
  H           4.01194139952231     -2.37678702065374     -1.18149218604165
  H           1.89451088842302     -3.86988301581230     -0.78966756750846
  H           1.46197116509206     -3.48738818870171     -2.48001902277106
  H           0.68536120871177      0.19195905560383     -1.54640274428350
  C           2.67541434131470     -1.73693930705233      2.10597904873868
  H           1.77952406544334     -1.41519498373095      2.64404212112109
  H           3.38216536393872     -0.90414036720381      2.04629153797482
  H           3.13799552226407     -2.57245963164215      2.62844201617311
  Br          5.73184838374659     -2.68124933025901     -5.07507920960012
  Br          6.55043622311586     -2.34667648769234     -2.04183848726658
  Br          6.29645459653683     -5.24750652216521     -3.26943912942705
