22
Coordinates from ORCA-job NEB_product E -43.977745517140
  C           3.15874868976229     -1.00132430728780     -0.98186063959910
  C           1.76796925365567     -1.19255298890352     -0.34746976885389
  O           3.18110264062027      0.23936501913514     -1.61761875085135
  H           3.96627779002246     -0.99912189083377     -0.24456688740777
  O           1.62544093867251     -1.73321189826773      0.85205742128063
  C           3.34727426273034     -2.16930811983481     -1.99638086096352
  C           3.11431865635766     -3.49883838736227     -1.33507532417520
  C           1.97108127244298     -4.15460836362228     -1.40621734342476
  O           0.80515138944167     -0.83108778349641     -0.97281862406155
  C           4.71574162125778     -2.13628710933544     -2.65634778389980
  H           2.59756770918893     -2.02246081606875     -2.78606150588125
  H           3.95235145138717     -3.90496319922936     -0.78196154545851
  H           1.83453302506884     -5.09942223895843     -0.91064749448781
  H           1.12706734799064     -3.77275462131283     -1.95607013000971
  H           2.29392692655361      0.42259665624012     -1.96712886732472
  C           2.71899491223187     -2.07373647415438      1.68892834499658
  H           2.26657614319861     -2.47059721984634      2.59589616726363
  H           3.31539083519699     -1.19397863336910      1.93970566029533
  H           3.35017273286669     -2.83897294727741      1.23516523092295
  Br          4.89225196851399     -3.70655544839860     -3.82918939241250
  Br          5.00160800591395     -0.56207909173260     -3.75737487048201
  Br          6.15845242692509     -2.23330013608345     -1.34726303546566
