21
Coordinates from ORCA-job NEB E -33.486700491480
  C          -0.31762803784821      1.23384613503805     -0.11350609717083
  C          -0.04954738539051      0.77687990227717      1.16536316450252
  O           0.58258311645060      1.64690248378451     -1.05347641933081
  H          -1.26670739519693      1.73638459991489     -0.25922853657843
  O          -1.16030218558460      0.80956360472977      1.98789959561453
  C          -0.79982442212698     -0.83884189131169     -0.87690362270057
  C          -0.54819621076318     -1.65480615039013      0.21796269518597
  C           0.71415824199028     -1.68403879434807      0.79571675237818
  O           0.92075634850887      0.04367260382639      1.51895920089165
  N          -2.05659693716919     -0.73585427560727     -1.41650689427008
  H          -0.00167673806094     -0.65382765449692     -1.58307823039979
  H          -1.39844852988055     -1.95919036606645      0.81572522642398
  H           1.58357179110472     -1.57905149551494      0.16584566990192
  H           0.87419061263389     -2.26332490868924      1.69055707859155
  C           1.95204226279005      1.44732697224244     -0.78226491522955
  H           2.48846104082347      1.95057720574621     -1.58556535149669
  H           2.21434049300513      0.38685580159783     -0.77318563274368
  H           2.22758973680423      1.88172859129439      0.18199071709145
  H          -0.95438202711005      0.28321094720230      2.77229912037942
  H          -2.81843829757546     -0.81165192686852     -0.75906937061294
  H          -2.18594547740463     -0.01636138436074     -2.10953415042780
