21
Coordinates from ORCA-job NEB_reactant E -33.506298057780
  C           2.07148610048611     -0.02473259968917     -0.15226930259974
  C           1.20583040406915     -1.02056178816817      0.06582830297291
  O           2.15478346937462      0.64174417191405     -1.35769301344692
  H           2.75090770436371      0.30175491824108      0.63015676701221
  O           1.19705944601846     -1.73344330906133      1.23528184737112
  C          -1.16754829454914     -3.90304018271722     -2.57213471560306
  C          -1.31753105670343     -2.85832134116907     -1.76187682560111
  C          -0.43530102677147     -2.59788249697827     -0.58829447371432
  O           0.31055925151983     -1.40613093420327     -0.85559936940236
  N          -2.01434247695479     -4.22595163685520     -3.61314197535316
  H          -0.39257109091646     -4.63562907488723     -2.38954250631638
  H          -2.08508203488979     -2.12264334649218     -1.94985537805148
  H           0.25331811796899     -3.43441441702871     -0.42411945367659
  H          -1.02740878226394     -2.44920918496875      0.32488809093921
  C           1.95974312836624      2.03250473143607     -1.24638999714087
  H           2.12419421900725      2.44790493791628     -2.23886215201852
  H           2.67386231436151      2.47784118890331     -0.54174366365054
  H           0.94229384588926      2.26928020276045     -0.91508159614082
  H           1.86756888336035     -1.38229405767132      1.83002827234486
  H          -2.61173614448248     -3.47268946670883     -3.92022661740441
  H          -1.60148597725395     -4.74588631457252     -4.37075224052004
