21
Coordinates from ORCA-job NEB_product E -33.516793186990
  C           0.55603654349505     -0.74433132868154     -1.20266674763665
  C           1.38175519864445     -1.10959197432409      0.03919294480618
  O           1.36977532185647     -0.28219751540112     -2.24429274538155
  H          -0.19248267774979      0.02590892379286     -0.93167498236150
  O           0.71587075235707     -1.04152677174624      1.20942368225251
  C          -0.17432989379000     -2.00897059794019     -1.73140260813644
  C          -0.72233159277642     -2.84537070114362     -0.60358014393909
  C          -0.23821321681939     -4.01804510515896     -0.24118444679319
  O           2.53043367242295     -1.43086406525867      0.00541890320566
  N          -1.19890955491011     -1.58692632700244     -2.67183144697642
  H           0.58082184611585     -2.57186113835267     -2.28671068341446
  H          -1.60153936205838     -2.43873812560551     -0.11312049339268
  H           0.62764308553659     -4.44060105106933     -0.72197241676643
  H          -0.67501082587409     -4.59405013937999      0.55679344618231
  C           1.94915060888203      0.97951026339744     -2.01092264149064
  H           2.50417685172049      1.22456914770183     -2.91329562145199
  H           2.63455188866149      0.96018848484843     -1.15746986706379
  H           1.17863673384766      1.74230280978325     -1.83791385426696
  H          -0.21285618240220     -0.79763789803581      1.10242303157481
  H          -2.00515455905826     -1.20740125262211     -2.18590797951924
  H          -1.50662463810148     -2.36726563780152     -3.23820532943045
