17
Coordinates from ORCA-job NEB E -33.300026512360
  C           1.03719813651699      0.41427808556848     -0.29195495577695
  C           0.13528214773597      1.45218635949488     -0.05455394010100
  C           0.92777056472091     -0.29343622214102     -1.62570705325475
  H           2.06595550120080      0.57056929225993      0.01962879114747
  Br          0.62440394026783      2.71710441883923      1.34970105429640
  C           0.29383356980690     -0.85690640486155      0.99489735187259
  C          -1.04453059696283     -0.93869150106622      0.62465029597966
  C          -1.81844695662992      0.25685735566473      0.71212176597885
  O          -1.11231069073627      1.32499072301598     -0.28046178271904
  Br          1.36277532688904     -2.43797302575188      0.88915197198046
  H           0.56856040529915     -0.29358957357967      1.88048949067726
  H          -1.35266228658103     -1.71170661036176     -0.06323875139332
  H          -1.76232212650036      0.80042790806561      1.65380988249258
  H          -2.82830686896136      0.20279317443158      0.32405155047392
  F           1.64254820962656      0.41728779537557     -2.55549141664064
  H          -0.10779651564835     -0.32944951578696     -1.97852494064587
  H           1.36804823995596     -1.29474225916693     -1.59856931436762
