17
Coordinates from ORCA-job NEB_product E -38.040499022100
  C           2.12564584653407      2.37225818324228      0.37758826557157
  C           0.78866157246723      2.71723171745323     -0.22970278255640
  Br          1.96301838956174      0.46500420183179      0.79015437525453
  H           2.94136284754928      2.45392421680348     -0.34221198971966
  Cl          0.79394640774291      2.56544474070533     -1.97613928761595
  C           2.40116071028903      3.17892410789631      1.65103437079585
  C           3.52251359130159      2.58451236624711      2.45811371483587
  C           3.39332149335623      2.20155160549695      3.71318464036760
  O          -0.19207161741665      3.01142494794750      0.36546747299780
  C           2.77972435368120      4.60996971587269      1.24792937358185
  H           1.48312184368538      3.22966577396669      2.24663158736238
  H           4.46238464338460      2.48412096926541      1.93304113578635
  H           2.45961123675193      2.28939733362811      4.24362190887241
  H           4.21578560692203      1.77230460083334      4.25700772850263
  F           3.88794408667982      4.60928278351086      0.46855368009234
  F           1.80821630166021      5.19309136313527      0.50948771689419
  H           2.97875268584938      5.25159137216364      2.11903808897662
