23
Coordinates from ORCA-job NEB E -45.154664657480
  C           0.71090232626427      0.06421113549940      0.68274245715572
  C          -0.32894447200825     -0.68704800894317      1.25530803326756
  C           0.81741193434514      1.51916204392406      1.06460929026842
  H           1.69961797326946     -0.38629954797702      0.70380634999446
  C          -0.15920157361258     -2.17796957492804      1.44702947199759
  C           0.17343631180364      0.03711108452984     -1.17608883118678
  C          -1.13514283881590      0.52388367158053     -1.10576920047837
  C          -2.09763036872520     -0.19135190867103     -0.33664069808400
  O          -1.54954241301518     -0.24111783278883      1.18764804918054
  C           1.20040226443560      0.79295770902266     -1.97419047691871
  H           0.28633632544041     -1.04027262301348     -1.27305112603951
  H          -1.30550621412676      1.57536709026358     -1.28021367419381
  H          -2.18469525631893     -1.25711876541241     -0.54164431231761
  H          -3.06270481083218      0.28510114015496     -0.21654535907376
  F           1.87149343722357      2.11954004518985      0.48527571206563
  F          -0.24233828312497      2.28261306860642      0.79895301568364
  F           1.03204143386870      1.62765386119143      2.39160991379839
  F           1.14866948450199     -2.56385850294314      1.34730858478962
  H          -0.72001456956948     -2.73016637645595      0.67785392161309
  H          -0.52092773510966     -2.47828675372911      2.43622911101409
  H           2.21110728331321      0.53518878460138     -1.66923143927550
  H           1.06663337005236      1.86694358373850     -1.88112598091872
  H           1.08859639074072      0.52375667655955     -3.02387281234199
