23
Coordinates from ORCA-job NEB_product E -45.188072461400
  C           2.52894767855303     -0.04249950212778     -1.78032064137742
  C           1.44602816514732     -0.88176926832116     -1.09369099896841
  C           2.65340637133181      1.28591112372583     -1.03985488253808
  H           3.50703238051378     -0.52510971539406     -1.67836243746712
  C           1.90740328409351     -2.30041248192227     -0.79918190013218
  C           2.17808770551578      0.06231980239136     -3.29438976123992
  C           0.87045426147638      0.76544567576463     -3.52301557992005
  C          -0.25869283196555      0.13919057819517     -3.79342954921058
  O           0.35383265310519     -0.46875024596413     -0.84502213058724
  C           3.30102580423873      0.73109540930431     -4.08676406252197
  H           2.07904887929729     -0.97366612409111     -3.64124885252154
  H           0.89760807367430      1.84320834251180     -3.46016344744135
  H          -0.31676758392131     -0.93519920222588     -3.86077187406556
  H          -1.17698669787413      0.67561525301109     -3.95206222872332
  F           3.70739402241100      2.00645353815921     -1.45955250598687
  F           1.59581889102655      2.08511512726997     -1.10741900298234
  F           2.88074970763519      1.04960172724903      0.26832069222127
  F           0.87133542601784     -3.09039501734261     -0.40504903609346
  H           2.63984309719250     -2.28173457694871      0.01807680865880
  H           2.35320315669853     -2.75944319041656     -1.68950175861389
  H           4.25547344692395      0.24447416411460     -3.89884369475020
  H           3.39280571836450      1.78298241769627     -3.83248762125584
  H           3.07884839054382      0.65706616536099     -5.14846553448274
