23
Coordinates from ORCA-job NEB E -40.050905498640
  C           0.69151096093262     -0.96643221909437      0.00219244770463
  C          -0.56609153663454     -0.44784501525373     -0.41736681790956
  C           0.68592862943459     -1.89187866340326      1.08811893240534
  H           1.39922466302448     -1.23951395731920     -0.77775836969025
  C          -0.74914641087990      0.01889244637266     -1.83683218850131
  C           1.38374673831066      0.59128446633486      0.82037894567629
  C           0.44069973171167      0.90715205218805      1.81186465990970
  C          -0.86932028008624      1.21983340081760      1.38168529407061
  O          -1.40432302511400     -0.06270048981202      0.48390404243718
  N           2.71606360488380      0.18462769284569      1.26009409753105
  H           1.46523927813589      1.20849231163513     -0.07154447263096
  H           0.59676979502107      0.48124409796766      2.79256939036916
  H          -0.96839868330616      1.98769675467897      0.61806339276425
  H          -1.62810944510629      1.29320571967291      2.14973733522859
  N           0.64599782336124     -2.65213926658091      1.94080956191516
  C          -2.16009755860608     -0.28206139214984     -2.33946350788975
  H          -0.00609692431866     -0.44252548276374     -2.48732895960773
  H          -0.59461809983146      1.10615220825926     -1.85464857301773
  H          -2.31663189298765     -1.35600140133717     -2.40190357029985
  H          -2.31087194243483      0.15034975573149     -3.32487119796520
  H          -2.89568276281567      0.13240073261156     -1.65495052442679
  O           2.84750732329141     -0.23324228433446      2.38099154709103
  O           3.59670001401406      0.29300853293287      0.43625853483615
