23
Coordinates from ORCA-job NEB_reactant E -40.096896483860
  C           2.02920750921879      0.57451925621732     -0.14573782217872
  C           1.64554941325664      1.78855483209719     -0.58047878279480
  C           2.27996533305781      0.16755275268318      1.17043777163715
  H           2.17282466697126     -0.20607194825125     -0.87969637798618
  C           1.38814870907508      2.04468627670017     -2.03968261615123
  C           3.99900807455822      2.96850278201551      1.30913168859305
  C           2.91237188190972      2.84303071537537      2.06059534084255
  C           1.51007933697171      2.87323813899073      1.55301283658940
  O           1.39418798465364      2.89686016892669      0.14878628326211
  N           5.31033258044396      2.94458601703056      1.88803880865940
  H           4.00774513501434      3.08239541805458      0.23570696938783
  H           3.02393241187233      2.71985980200389      3.13019460374467
  H           1.03774516687468      3.80391974611874      1.89181373203127
  H           0.94599410340192      2.03464915219171      1.98081228347513
  N           2.49839367186788     -0.21789377112525      2.23134533685993
  C          -0.06838250346011      1.73043723621769     -2.38923249038781
  H           2.05339826933641      1.43197732215905     -2.64819596681136
  H           1.58733585069681      3.09723568788393     -2.24474887485975
  H          -0.29138989633262      0.68397704221053     -2.19454346655812
  H          -0.25072409579789      1.93431895968926     -3.44085057600006
  H          -0.74017949201451      2.34534885423856     -1.79562605575238
  O           5.40911335473023      2.91926292414896      3.09368164897346
  O           6.23974253369366      2.95975263442288      1.10973572542447
