23
Coordinates from ORCA-job NEB_product E -40.097176021630
  C           2.98653982701111      1.74117017669582     -0.06023564055968
  C           1.74027444956801      2.25298103428342     -0.81663259112293
  C           2.83304161206452      0.36893133196219      0.35651915966414
  H           3.82579443525061      1.78641784541739     -0.77350887039814
  C           1.13029963119299      1.24978317882331     -1.75335345350467
  C           3.32163881782072      2.66591343102619      1.12315625175596
  C           2.57394435116573      2.32596940327029      2.37676392259975
  C           1.58354410384867      3.06232107627784      2.84261843712943
  O           1.34036623733224      3.37146682108252     -0.65121182776994
  N           4.79547134445325      2.65610750535030      1.37989333856613
  H           3.07536621106520      3.69139875868678      0.80972831886855
  H           2.88624031689278      1.41897655785195      2.87533411780523
  H           1.26353985537502      3.96440424739224      2.34737249156543
  H           1.04736962707732      2.78461592722031      3.73243422907564
  N           2.70848472297580     -0.71636033166918      0.69112166344835
  C           0.06371876346480      1.87157024071942     -2.64559768336346
  H           0.69450399232384      0.45653920666380     -1.13733309949452
  H           1.92048768343531      0.78798223947646     -2.35048948801921
  H          -0.71415806374628      2.32726214873828     -2.03882448113078
  H          -0.38420539271506      1.11343190679135     -3.28147545445365
  H           0.49950456149131      2.64404603757069     -3.27412743421557
  O           5.52174146432699      2.51051817785152      0.42563329181003
  O           5.15129144832512      2.82445307851708      2.51571480174391
