16
Coordinates from ORCA-job NEB E -31.084863629040
  C          -0.02593147614512     -1.18400123099623     -0.70586155407170
  C          -0.57204009810114     -0.14785062766322     -1.46675364616298
  C          -0.92002445076720     -1.93354741446967      0.09902185625063
  H           0.81280437661759     -1.74758411976140     -1.09714658792399
  I           0.59571955134391      0.47954688394829     -3.18300078114873
  C           0.75642360706534     -0.02733909606093      0.87722536675800
  C           0.26306786638852      1.25848615685426      0.65666851079205
  C          -1.11858534032908      1.42387208318727      0.53405379499220
  O          -1.44055412755249      0.64217915201721     -1.05685684457780
  C           2.14746228714658     -0.27362018940681      0.74959260116655
  H           0.25490408033519     -0.66042887427651      1.60168123252109
  H           0.91503981816177      1.98076756228075      0.18025231036161
  H          -1.51762216254331      2.40118691853661      0.30754606364002
  H          -1.77413405789085      0.78568336792828      1.11351898786367
  N          -1.64721322029407     -2.53306740311613      0.74955303760176
  N           3.27068334656435     -0.46428316900179      0.64050565193762
