16
Coordinates from ORCA-job NEB_reactant E -31.125456247520
  C           1.71518347736138      0.05526242344099      0.17226556285424
  C           1.59182291522554      1.34666847507542     -0.16334918704580
  C           1.67985316988474     -0.46953213852954      1.47114892389844
  H           1.83397947181883     -0.68477255392130     -0.60543726593186
  I           1.61509129553000      1.90769080196041     -2.20045377463360
  C           3.35361783060840      1.52553106920922      3.47008603336992
  C           2.97052262740417      2.24894589305456      2.42116943835293
  C           1.54750310057456      2.40359627602251      1.98364753544689
  O           1.43120509794992      2.44553461499930      0.56478983869727
  C           4.70475318763121      1.44176933116505      3.86195652275216
  H           2.65298329286310      0.95864556501676      4.06861530338760
  H           3.69545898200262      2.79416795599899      1.82981791962706
  H           1.17294079377904      3.38409361304092      2.30150061800805
  H           0.90594986551938      1.62377844217821      2.40570169614288
  N           1.65269956439598     -0.95175019611522      2.51335598678125
  N           5.80283532745112      1.37627042740372      4.18298484829257
