16
Coordinates from ORCA-job NEB_product E -31.131162193000
  C           2.61997531123918      0.36129874143936      1.14821906252321
  C           2.80089522641140      1.08750090124461     -0.16382618200916
  C           1.21174124570387      0.05119445064670      1.29624492324954
  H           3.17559860068558     -0.58477645663236      1.11078360560968
  I           2.56153259332105     -0.24582729658481     -1.85227540833241
  C           3.09050415509836      1.20485618488563      2.36816647971046
  C           2.26142634380482      2.45185305521187      2.55849003123847
  C           1.38587093913295      2.58523969371164      3.53527643113286
  O           3.02308310997242      2.23159782327195     -0.33341413231499
  C           4.48367350250221      1.55425681226783      2.18342291373717
  H           3.00837794542560      0.57225965719817      3.26188214167418
  H           2.42501814050118      3.23559013519738      1.83310524001235
  H           0.79927026344474      3.48037702037308      3.64229305319258
  H           1.21250558334600      1.80942684382456      4.26393351104282
  N           0.10337189556323     -0.17594083770781      1.44104317805605
  N           5.57985514384741      1.82829327165221      2.02185515147717
