18
Coordinates from ORCA-job NEB E -31.213903107350
  C          -0.87610988493410     -0.77255706162919     -0.36617961263344
  C           0.40493242877722     -1.40201660334343     -0.14580129076177
  N          -1.17959541521634     -0.36575922958201     -1.64168576107968
  H          -1.72755321680989     -1.17903999052480      0.17474662451317
  C           0.49850126887504     -2.25018066087013      0.99903225179229
  C          -0.41616072549544      0.76990703407218      0.72684252500515
  C           0.72199361274139      1.31158083351409      0.07538236010437
  C           1.93261503374525      0.64952970335627      0.16454834451347
  O           1.43979777313177     -0.92384333083294     -0.70019858832275
  C          -1.63744550450576      1.48858425596079      0.63676263933998
  H          -0.26801712614607      0.29643856900333      1.69400364818213
  H           0.55229376165278      1.99566514451509     -0.74583935945715
  H           2.20829892021935      0.15021580783278      1.08277901574511
  H           2.76226780707407      0.97803122740316     -0.44059776995829
  H          -1.98926949049399      0.22639747215020     -1.75128675087589
  H          -0.37818363573318     -0.07406190447474     -2.18608920284449
  N           0.58355702950281     -2.94167853227757      1.91091084593125
  N          -2.63192263638491      2.04278726572691      0.51267008080652
