18
Coordinates from ORCA-job NEB_reactant E -31.250019742110
  C           0.90644605990147     -0.11581016471376     -0.34522749679718
  C           1.83176903927546      0.59583736018533      0.33912791264413
  N          -0.36516764407994     -0.31693949740402      0.09928099020778
  H           1.19445172461470     -0.61689322096461     -1.25641459104549
  C           3.14593828005390      0.69444356909319     -0.14312870844782
  C           2.21631580821898      4.68395731532183      1.74889945403055
  C           2.28192396180466      3.46534926846344      1.21705354291425
  C           2.33673395448118      2.20506411158204      2.02320656163478
  O           1.46688415602319      1.20804182689346      1.53692453844249
  C           2.17365163444218      5.85000478576101      0.96000327619318
  H           2.19624330511653      4.84240219479341      2.81976049708532
  H           2.30172473161940      3.33689000575517      0.14205751978558
  H           2.01710050771347      2.38386342714972      3.05374290894959
  H           3.37527125112272      1.83542290384352      2.03476744002529
  H          -1.07053636450905     -0.58533457280183     -0.56393254218450
  H          -0.65865729553694      0.26651574600692      0.86676901696406
  N           4.22240218529518      0.78883279652297     -0.53835226502581
  N           2.13310470444294      6.80655214451219      0.32916194462380
