19
Coordinates from ORCA-job NEB E -36.429060675860
  C          -0.03708454876715     -0.41315107110042     -1.21652289523411
  C          -1.39833996759733     -0.07936647333149     -1.25422881180410
  N           0.32940674018109     -1.71889102892688     -0.71038628803119
  H           0.57927370400970     -0.13941111209244     -2.06586501368231
  Cl         -1.85574729605008      1.07687691628995     -2.50875137658051
  C           0.56631614458857      0.70777472549259      0.31302165692047
  C          -0.34949360498787      0.31430330537817      1.28606141798194
  C          -1.72291915115729      0.59306549696581      1.09824301079402
  O          -2.18926890984970     -0.24918980883715     -0.29382062178032
  C           2.02670383943039      0.40274437792326      0.48230144880358
  H           0.36989988697970      1.64051941824712     -0.20734611470548
  H          -0.07919007159335     -0.48143204445323      1.96401290120917
  H          -1.99157310608896      1.58680598447282      0.75382115431050
  H          -2.41558173658195      0.18074912332768      1.81872786424623
  O           1.25735819584957     -2.25641642180869     -1.27478403454235
  O          -0.29330467162052     -2.18441954039372      0.21189217270817
  H           2.54772327670181      0.40275617120179     -0.47176701036065
  H           2.17938585567807     -0.55743934171304      0.96878859095351
  H           2.47643542087531      1.17412132335787      1.10660194879344
