19
Coordinates from ORCA-job NEB_reactant E -36.453563138950
  C           1.74479421547769      0.22730003593089      0.00776661064205
  C           1.30905657823681      1.48975377036107      0.22701709516242
  N           1.86436438446761     -0.82258250720249      0.94113830555405
  H           2.03168112806589     -0.06051155647427     -0.99137978688204
  Cl          1.06885985069360      2.45827404290623     -1.19125136227979
  C           3.79138627803469      2.91190118697651      3.24118897622998
  C           3.09614894424506      1.99791640465271      2.58340933177940
  C           1.60168625479843      1.92750650639073      2.59236466273501
  O           1.04116964986563      2.19880444975380      1.29151145810501
  C           5.27772752850396      2.98663061272729      3.26554284671800
  H           3.27515594843331      3.66286158908745      3.82550435992206
  H           3.60666835475859      1.24397062639763      1.99943500028999
  H           1.17477142170276      2.71329026308540      3.21746713993993
  H           1.26326352314355      0.94468572663916      2.94265786951061
  O           2.59825400749907     -1.74144267780234      0.63602058427027
  O           1.20957725037169     -0.78093057746950      1.97057993219129
  H           5.72204124695237      2.20535303682593      2.65495421866925
  H           5.63773131028262      2.88350503392433      4.28850269421903
  H           5.60836212446665      3.95741403328946      2.89837006322350
