20
Coordinates from ORCA-job NEB_reactant E -49.029729865490
  C           1.60654262170831     -0.05397052096453      0.35778172187410
  C           1.90149321995661      0.62302019245222      1.48237128244466
  N           1.21774111247900     -1.42283529928588      0.25216241684615
  H           1.65973481592493      0.44416094858959     -0.59752218015004
  C           2.41031900739158      2.05450633082426      1.36973705355139
  C           1.01749154677781     -3.16588426136695      3.72526631189548
  C           1.62085353132770     -2.00251058451864      3.48996941691155
  C           0.87785359045417     -0.73186041720472      3.20555006079384
  O           1.72519808119808      0.32299325408318      2.76069299924318
  C           1.73684190032054     -4.32756521668018      4.06536473739740
  H          -0.05650260190789     -3.28296265340847      3.66238785587590
  H           2.69536979990153     -1.91243186791483      3.55046866782373
  H           0.46245063220816     -0.34667816376390      4.14659549501560
  H           0.04828979288606     -0.88912549548747      2.50691678198288
  O           0.42483656185658     -1.69721319725030     -0.62050098290829
  O           1.73252968456731     -2.22407998176413      1.00703925208093
  Cl          3.50506498963657      2.41897818290313      2.71421000569923
  Cl          3.25411550169935      2.37171753466526     -0.14796846529586
  Cl          0.98186206294224      3.12766616541052      1.47471825119067
  N           2.30281414867134     -5.27842494931817      4.36375931772753
