20
Coordinates from ORCA-job NEB_product E -49.030259074870
  C           1.63534810501706     -0.86228968878431      1.34337751754143
  C           2.88824016948325     -0.05731923136780      1.66970009737393
  N           1.90712356586160     -1.66694461618929      0.09259347884804
  H           0.79398296364155     -0.20020656462386      1.11199590083912
  C           2.78092477034729      1.43610069878535      1.31423668130137
  C           1.23294638843749     -1.81286772437661      2.49017413753300
  C           0.85895842609815     -1.03759412886365      3.72953797225007
  C          -0.36525665216756     -1.00827227786887      4.21788045685388
  O           3.85520859485050     -0.51218826396282      2.19273641811609
  C           2.30146947239368     -2.74246580164790      2.81304703922670
  H           0.37581556565475     -2.40623785028624      2.14493722230749
  H           1.67211487018363     -0.51090421784144      4.20791812726247
  H          -0.60126894602823     -0.45033486407781      5.10656837248228
  H          -1.18033977839800     -1.53992796241325      3.75439586975381
  O           2.83815120694742     -1.31602399756817     -0.57667532350558
  O           1.15260531084008     -2.56973309334549     -0.13395936701813
  Cl          4.33610718941223      2.23982616015273      1.49403386522298
  Cl          2.15232125671380      1.66673340451033     -0.32930103304194
  Cl          1.60898286508512      2.10112390661761      2.49542160723892
  N           3.10266465562619     -3.50467388684851      3.09368095941408
