14
Coordinates from ORCA-job NEB E -29.586611416050
  C           0.12180587465895     -1.39099823747237     -0.56099336174020
  C          -1.14540027761952     -0.97934805123539     -0.17079813043365
  I           1.26238668016170     -2.39985748849179      0.89204197862454
  H           0.25539119973327     -1.79727355168031     -1.55502031325581
  F          -1.98705257126629     -0.69469277012793     -1.22494647755037
  C           0.87931473624408      0.50150481399269     -0.67392255812265
  C           0.61114136885586      0.99249588809673      0.59484971184580
  C          -0.73317846623819      1.18009925761287      0.96770800735641
  O          -1.40862150624197     -0.42086011903640      0.91521322006809
  I           2.88678608608484      0.26253024828695     -1.29171454556405
  H           0.25207958341885      0.79550890830873     -1.50575346630833
  H           1.35246817227835      0.87081964538333      1.37211678204358
  H          -1.40768037339640      1.62999691308842      0.24774988027520
  H          -0.93944050667351      1.45007454327448      1.99346927276144
