14
Coordinates from ORCA-job NEB_product E -29.636509557830
  C           2.64530240479600      1.52258582193631     -1.37764966686915
  C           1.18940534367383      1.36580580986388     -1.07308774679057
  I           3.54063486204360     -0.21338534070673     -0.42129508132593
  H           2.82517177022570      1.38134675827398     -2.44538595116843
  F           0.61616133435050      0.49689274518922     -1.94776689263508
  C           3.18599416248084      2.84852729065601     -0.87908291905897
  C           3.05871916043674      3.06671240218875      0.58393134727452
  C           2.54315798870270      4.16093492727959      1.11416537484260
  O           0.54035079981911      1.86028830134249     -0.22272432354356
  I           5.28926977920388      3.02759075434191     -1.46169499348719
  H           2.68125617951873      3.64796972617771     -1.42843460160604
  H           3.44305698661593      2.27445870149992      1.21298040791066
  H           2.16574979049332      4.96780801091531      0.50749265673140
  H           2.46906943763912      4.28586409104168      2.17945238972573
