20
Coordinates from ORCA-job NEB_product E -29.187566266630
  C           2.44955401741115     -1.16642046652377     -0.18571579975616
  C           1.07443854398310     -1.45529948759243      0.33397699347237
  C           2.40923162706061      0.10378530150780     -1.04523417972275
  H           3.11148424367345     -1.00412545694379      0.67179937550056
  Cl          1.09183108085910     -2.66787497413047      1.63319854961402
  C           2.95725414860049     -2.42217567798752     -0.93363012878577
  C           2.06473829616701     -2.81064671752697     -2.07161475755578
  C           1.30257840221063     -3.88737781013546     -2.07183344836817
  O           0.03970274374404     -0.99720050391529     -0.01082811365034
  H           3.96193578269111     -2.21260213647096     -1.30406981084731
  H           3.02061153531010     -3.24592686692548     -0.22114075879251
  H           2.06853531938692     -2.14739198570521     -2.92564510209000
  H           1.28104560535990     -4.56718626805801     -1.23558542882044
  H           0.66846383393091     -4.13798346640361     -2.90460336118814
  C           3.78873599357263      0.54105198345584     -1.52088683233390
  H           1.96886268086685      0.90191348167767     -0.44367886455174
  H           1.75051143600090     -0.05633936968670     -1.89861673557365
  H           4.47147144914252      0.64085004163100     -0.67965044986159
  H           3.71878850331479      1.50474178196265     -2.01878025109835
  H           4.20962475671379     -0.17039140222928     -2.22636089559034
