26
Coordinates from ORCA-job NEB_reactant E -54.820750906730
  C           1.50511914073599     -0.39058904410304      0.07317806191937
  C           2.17562908226782     -1.42537939238806      0.60038833591352
  C           1.94332034676031      0.58990687473121     -0.94332819495860
  H           0.48331913372911     -0.25206044955567      0.39768385650566
  C           3.61124242933847     -1.82967707740543      0.27964390934944
  C          -0.19151571616680     -2.98341112817676      4.29261445333778
  C           0.17570506920016     -3.20993662285293      3.04231956387206
  C           0.38662957465133     -2.12410515624779      2.03363766694879
  O           1.71118526075771     -2.27021060324001      1.52301051539808
  C          -0.43149206609669     -4.01239317022478      5.34944287592753
  H          -0.35927305164713     -1.96347472290618      4.61912170326576
  H           0.36428731008671     -4.20440920183727      2.67123368677791
  H           0.27163642749145     -1.13430367824054      2.49222815254321
  H          -0.32955635737895     -2.22659594863297      1.20564240985724
  Br          0.67946575217592      2.08405824968194     -0.96059052001813
  Br          3.70993395288803      1.37014449915786     -0.62530718873581
  Br          1.90702683062297     -0.18595969975743     -2.77208633137514
  F           4.48973923206775     -1.18569125261369      1.05862347481221
  F           3.79110081619559     -3.13371819350795      0.48537282679017
  F           3.95902623034611     -1.59403094456729     -0.98828645405579
  C          -0.19747898495883     -5.45274683362001      4.91600705230519
  H          -1.46122797014335     -3.89882413666213      5.70323548133445
  H           0.21746153401130     -3.77676546141902      6.19860307978500
  H          -0.86515627153913     -5.72329449657826      4.10183920963149
  H          -0.38628215495029     -6.12448101133565      5.74980844929980
  H           0.82975444955445     -5.59325139769811      4.58976392356882
