26
Coordinates from ORCA-job NEB_product E -54.804289352330
  C           1.46576067116432     -1.32677281360615      1.71762229583424
  C           2.89283228008683     -1.41970636269507      2.23343180835162
  C           1.22417874705205     -1.61615188567515      0.23724232999984
  H           1.27443958282272     -0.24399272143712      1.78865819977634
  C           3.90738264527556     -2.52871546801364      1.81721672839230
  C           0.51069336065497     -1.94175235901967      2.81114205975952
  C          -0.88841978659132     -2.14082058488470      2.30535014532678
  C          -1.91275346462007     -1.42285081372115      2.72844404007890
  O           3.29498160605859     -0.63126265568112      3.04188090149234
  C           1.01618936779046     -3.18819038194887      3.56744959709161
  H           0.47172825268361     -1.15700240878580      3.57677957635463
  H          -1.04791650764050     -2.94459814991052      1.60261329779467
  H          -1.79444701522484     -0.62016216121819      3.43796543950099
  H          -2.91245616838672     -1.60582571731123      2.37624576075501
  Br         -0.31860481198525     -0.55224900953437     -0.36080990583243
  Br          2.77450809183917     -0.91720694826431     -0.77765760731089
  Br          0.86829121097036     -3.41787190652473     -0.36290640384414
  F           5.03635489857481     -1.95959782263969      1.39376003635073
  F           4.20974959751946     -3.27196813652643      2.88866490636106
  F           3.51017020290304     -3.37405392249103      0.86552363376893
  C           1.05200962924955     -4.52339422492555      2.83524100110509
  H           0.33909008504781     -3.29539497762802      4.41941293164092
  H           2.00549883077858     -2.97461565292586      3.97954271299628
  H           0.08383969267958     -4.76855924410535      2.40811535587763
  H           1.30839596272014     -5.30219844950007      3.54943648126933
  H           1.79670303857708     -4.54978522102621      2.04783467710866
