16
Coordinates from ORCA-job NEB E -36.823436401710
  C          -0.40670922867509     -1.44325254476066     -0.31560515581698
  C          -0.41351452377006     -1.57655977054021      1.07598273004152
  Br          0.91819101373688     -2.48098213727169     -1.26531680395493
  H          -1.35414936065109     -1.52098141796057     -0.83656493313858
  Cl         -1.83179694371537     -1.83625013276568      1.98276270330380
  C          -0.38021534390135      1.33288185453579     -0.09735208357120
  C           0.47771239394004      0.26378665748988     -0.27848087063643
  C           1.36028425062438     -0.18885261066119      0.88595231550801
  O           0.59846937349842     -1.04291065044691      1.74012101048730
  N          -0.87057559870921      2.03933515058838     -1.19755488731354
  H          -0.80312783206529      1.62192070251270      0.85106883086733
  H           0.92627129964714      0.24686249489361     -1.26923994738291
  H           1.68910956773281      0.64759572908891      1.50649169295180
  H           2.23572400116385     -0.72578235504710      0.50720445206164
  O          -0.51715713176251      1.69331166689016     -2.31702541624494
  O          -1.62851593709355      2.96987736345460     -0.97244363716189
