21
Coordinates from ORCA-job NEB E -37.605638092440
  C          -0.16426136541443     -0.98389892314723      0.50021690877078
  C          -1.23536873241730     -0.59269072278935     -0.29636745618589
  H          -0.35042360399082     -1.02557044679824      1.56142926944713
  H           0.53894425279454     -1.72107700709082      0.14465108762229
  O          -1.29833840108373     -0.78818356369214     -1.64353254185043
  C           0.77963313021835      0.74866393490353      0.50534360107065
  C          -0.18102629306840      1.64257640069041      0.96856831244858
  C          -1.36758568154073      1.77083511732914      0.17811714118914
  O          -2.04997757459119      0.31865911405618      0.13857671555482
  C           1.99916711152469      0.47980458208312      1.34889132596399
  H           1.03078332223606      0.76836261900953     -0.55040198273455
  H          -0.26662827739785      1.78624110966278      2.03570726732074
  H          -1.21391698118820      1.96659407288002     -0.88136183155513
  H          -2.15667021382146      2.38243488906073      0.59815718668435
  C          -0.44296095026584     -1.73745635604776     -2.23764770456027
  H          -0.76056457033137     -1.81193895198475     -3.27626210609130
  H          -0.53997403661602     -2.71464653281895     -1.75609578251615
  H           0.60254796002850     -1.41805258187371     -2.20168070206956
  F           1.67765812166200      0.10865146186082      2.60998695256219
  F           2.73656769006462     -0.53758692221518      0.83203292971467
  H           2.66239509319857      1.35827870692187      1.42167140921394
