21
Coordinates from ORCA-job NEB_product E -37.670844320730
  C           3.53894532456839      1.19450205409069      0.16597226262214
  C           2.43275606016198      0.74300334028381     -0.76301332742190
  H           3.21573123786558      1.02769883802594      1.19424855544088
  H           4.43252893986545      0.59930311055116     -0.03293057898821
  O           2.76332774710797      0.94730968303548     -2.04327254794887
  C           3.85558773893554      2.68170504664857     -0.06308449213036
  C           2.63502090777565      3.52222623339931      0.18209904030261
  C           2.06404651544642      4.27447221435081     -0.73820293520378
  O           1.38911947421026      0.26376944175484     -0.41353474640901
  C           4.98634670297367      3.12248458306641      0.86882734216693
  H           4.21040553358568      2.82102113363984     -1.08867122515571
  H           2.22821923700688      3.45825016654526      1.18181854066701
  H           2.45416913918680      4.34002053634713     -1.74098739187080
  H           1.17926397350149      4.85039120598417     -0.53021138722522
  C           1.78739709322617      0.57759769338152     -3.00795590845908
  H           2.21819182843570      0.80468031053085     -3.97945711181415
  H           0.86856797219771      1.14586112649060     -2.85083391649760
  H           1.55997360319917     -0.48699852898586     -2.92782179598562
  F           4.68806046253974      2.87565876318194      2.16589734223396
  F           6.12358826179730      2.43154994055932      0.60723009540618
  H           5.21795224641246      4.19529310711823      0.77778418627061
