23
Coordinates from ORCA-job NEB E -36.037232137380
  C           0.57114817624759      0.44344068450637      0.46350539678714
  C          -0.81783160495676      0.40974125965890      0.59318554220857
  Br          1.45684161886184      2.57235326487400      0.54082156984218
  H           1.12565403373708      0.11323536587144      1.33269921159672
  C          -1.47410403038748     -0.02676460338375      1.87082190929875
  C           1.07128925279936     -0.11258615352599     -0.90754528069584
  C           0.27637815577224      0.59353885028438     -1.92688962046376
  C          -1.17196395567745      0.60414507458025     -1.77315089104750
  O          -1.65769667891680      0.63756361638425     -0.40847367300917
  C           2.57927064035566      0.03766179908777     -1.08679574117382
  H           0.86161184130829     -1.19206113453201     -0.88726226484427
  H           0.74087421744285      1.39300137963173     -2.47804169037188
  H          -1.63638193273785     -0.31044586609924     -2.16711212774800
  H          -1.63134152692228      1.45909151750206     -2.27435924892488
  C          -1.45717156515893     -1.55276355423559      2.00960079111014
  H          -2.50551894253478      0.32628775726446      1.86554578641421
  H          -0.95177956245516      0.42441538275850      2.71491482631204
  H          -1.98413462807665     -2.01440853264490      1.17822365320166
  H          -1.94691153127493     -1.84654432360110      2.93393556013322
  H          -0.43628928982301     -1.92678404595425      2.02494689071941
  F           3.02422687210311     -0.90514985293552     -1.98007023002275
  H           3.11176410228063     -0.14222817593376     -0.14757919523849
  H           2.85206633801343      1.01526029044200     -1.49092117408370
