23
Coordinates from ORCA-job NEB_reactant E -36.081473601770
  C           2.38536907762023     -0.66161012120874     -0.06106739705095
  C           1.56259001172338     -1.63760692242882     -0.44036752573651
  Br          3.41262938342441      0.56453213163279     -1.09812175750664
  H           2.53668790194778     -0.48340866697599      0.98946538371358
  C           0.89674686635976     -2.47368197952749      0.63187117543336
  C           3.84175124737251     -2.76097545594600     -2.46976422384031
  C           3.11296505544928     -1.89732119829931     -3.15483428434912
  C           1.68833930337360     -1.53967153367024     -2.85602484192386
  O           1.17586401548769     -2.08321135469120     -1.65563529405205
  C           5.26137477776106     -3.10317948461947     -2.78716187872797
  H           3.44977924406106     -3.27900657529925     -1.60596713131452
  H           3.52853994323038     -1.38849246374622     -4.01244011719763
  H           1.04401933208575     -1.96441961899311     -3.63561538762463
  H           1.56106580921542     -0.45120494459060     -2.87996348357293
  C           1.64662343351730     -3.78923345674445      0.83902904415234
  H          -0.12084344070799     -2.68821231766656      0.30299787796476
  H           0.85459048175959     -1.91831054984778      1.56794579561914
  H           1.66410700127761     -4.36136398134812     -0.08530385218509
  H           1.15278031615274     -4.38449089327766      1.60277055237206
  H           2.66987050480194     -3.59919361387177      1.15615562812649
  F           5.67396488780019     -2.55739599126885     -3.97481050778374
  H           5.39027419499843     -4.18933286665361     -2.87524501262581
  H           5.93761065128789     -2.72100814095755     -2.01111276188995
