25
Coordinates from ORCA-job NEB E -40.604810197480
  C           0.08716211568140     -0.14825261799020     -1.17408961413765
  C          -1.08817241655355      0.44492575216317     -0.74581672934590
  C           0.04484147513248     -1.55836155050138     -1.68099220541729
  H           0.81010316164033      0.50146606034462     -1.64737942110310
  O          -1.10471951175306      1.80629479156775     -0.79135161321468
  C           0.92488527234721     -0.46225370730891      0.86925457435352
  C          -0.15379290522140     -0.16146855623976      1.68670336299209
  C          -1.37351395703231     -0.80883564052319      1.48090339381640
  O          -1.99079687445371     -0.17663857055098     -0.09819438000169
  O           2.01304538978037      0.32598430172402      0.92047423004164
  H           1.09209864958460     -1.49005376250612      0.56939950629046
  H          -0.14993046094358      0.81630223568986      2.14903236099223
  H          -2.21815370706544     -0.53827242658009      2.09548057345078
  H          -1.35894881798022     -1.84700520278722      1.18153014737104
  F           1.27777982512929     -2.17422551644635     -1.59906527231226
  H          -0.22074372431267     -1.58008106152377     -2.74628625470119
  H          -0.66152969767935     -2.17194880570152     -1.11543842248054
  C          -2.19129594936847      2.44298420771826     -0.14630648796270
  H          -2.05261201483826      3.50844688685490     -0.31352514630524
  H          -2.19313306143576      2.22803036407348      0.92455569829082
  H          -3.14186898358292      2.11333510117281     -0.57365233327813
  C           3.18001425419243     -0.17897515357314      0.30444559040650
  H           3.55643835172728     -1.05611812298209      0.83977715197138
  H           3.91944940397351      0.61818806314054      0.34685413447606
  H           2.99339418303178     -0.45346706923469     -0.73631284419254
