25
Coordinates from ORCA-job NEB_product E -40.661891309800
  C           2.98682835754342      0.32773769123377      1.20579246066949
  C           2.07455073714434      1.41540187351942      1.74575467287508
  C           2.15387484664722     -0.84865712954932      0.70822782210989
  H           3.57959737129980      0.75222052736042      0.39187232177586
  O           2.42944568196809      2.60748637654977      1.27971274801660
  C           3.96341717905505     -0.10787254721617      2.32647196309880
  C           3.24791026119603     -0.79769645242759      3.45602540428230
  C           3.46989863744652     -2.05212651758478      3.80028838952461
  O           1.14755679898642      1.22939313992808      2.48973424065239
  O           4.61527459469069      1.07500682617987      2.76005957590211
  H           4.70286401216510     -0.79822460188048      1.88660002234508
  H           2.53384140779385     -0.18300257842918      3.98515959944866
  H           2.94387174491865     -2.51948269343220      4.61527775780851
  H           4.17828764911249     -2.66898990315624      3.27060043476243
  F           2.97053367986431     -1.83955893248162      0.22384207081125
  H           1.50050497388032     -0.54774100578054     -0.11663071066522
  H           1.56457235907042     -1.28279518269539      1.52083336968037
  C           1.69495413461633      3.72177443648408      1.77170899333397
  H           2.08269126732198      4.59444830008129      1.25329447078581
  H           1.83983377031589      3.81994871594067      2.84885445716643
  H           0.62983727057381      3.59226172101229      1.56865986415792
  C           5.72324898708719      0.83196586233213      3.58980459560266
  H           6.14691749378094      1.80593241427464      3.82568299570347
  H           6.47421296012993      0.22041339323227      3.07440028274878
  H           5.43097382339118      0.32385626650482      4.51557219740274
