21
Coordinates from ORCA-job NEB_reactant E -38.085359759240
  C           2.04511146794671     -0.27039403376476     -0.08384985686686
  C           1.56708722033659     -1.05797276384983      0.89580589756840
  C           2.16553437915318     -0.56409533978249     -1.44930197840386
  H           2.38946861227489      0.71830531262986      0.18978574940367
  C           1.54804001423168     -0.51090629880271      2.31232657972748
  C           2.60132791771056     -4.96699871886882     -0.60166310181562
  C           2.36529403993724     -3.66590502370163     -0.64114025926920
  C           1.03098510204908     -3.05581200367233     -0.33528126483728
  O           1.05602864590653     -2.29221743185851      0.87488983300461
  C           3.91556075565475     -5.59568990302994     -0.90847212932347
  H           1.80302962331314     -5.65248742476104     -0.34580654806614
  H           3.15386663778619     -2.97224480950882     -0.89635774775458
  H           0.28889932891725     -3.83399851588200     -0.14205277055237
  H           0.69057114713570     -2.42513523737382     -1.16349879115293
  N           2.29903589930534     -0.74462681628471     -2.57569005177235
  F           2.80113126155165     -0.20733474674289      2.72834168796972
  F           0.84543582904252      0.64490077813647      2.37698272611557
  H           1.10903700910059     -1.22912711359837      3.01891503300200
  H           4.26249682028465     -6.17353159106110     -0.05259229100832
  H           4.66085587822592     -4.84498519684978     -1.15619424527142
  H           3.81240241013583     -6.28214312137274     -1.74794647069704
