18
Coordinates from ORCA-job NEB E -42.886213284150
  C           0.87829473121245     -0.41823971858976      0.90791056219491
  C          -0.54343110848037     -0.28321413248745      0.90832324659405
  O           1.61602218040482      0.50760439451265      1.55777646585121
  H           1.31470270511079     -1.40586668694255      1.03143611892104
  C          -1.37865298245029     -1.51297816665801      0.57727458791963
  C           1.17420279149736     -0.05208082636103     -0.93058424652969
  C           0.62353668416408      1.23379094731244     -1.08549737163062
  C          -0.75503999789044      1.40666070799797     -0.97884283063004
  O          -1.03753839491619      0.87416367065516      0.70928487266249
  F           2.51484968705965     -0.15014756385997     -1.00644915612560
  H           0.71590084709182     -0.91382064546541     -1.40917348757351
  H           1.28562132389320      2.06844478245438     -0.89924216299189
  H          -1.41418514487403      0.68408841363375     -1.43928707419370
  H          -1.14619341641078      2.41209307141553     -0.94948206770759
  H           1.10316583194566      1.32772896320646      1.63907371634488
  F          -2.63263855335895     -1.40214358556656      1.01129367755541
  F          -1.45799817886260     -1.74911575581376     -0.75676658048086
  F          -0.86061900513617     -2.62696786944382      1.11295172981987
