18
Coordinates from ORCA-job NEB_product E -42.902659525070
  C           2.07895247437481     -0.56560277932527     -2.06974192523906
  C           0.75274888422988     -1.30754928681264     -2.24263995355186
  O           1.84692714429435      0.34608696740949     -1.03222936934093
  H           2.87251158222134     -1.28479815305623     -1.80638676021686
  C           0.64208021145730     -2.55879672010548     -1.32449951780797
  C           2.46277473835059      0.13226717156277     -3.39961919096416
  C           3.66490437790475      1.00254989206771     -3.20230974278598
  C           3.59553852762770      2.26009901798539     -2.80234678058148
  O          -0.13414746489172     -0.98508725862282     -2.96600236024691
  F           2.74416000518997     -0.85947647908106     -4.31121465506605
  H           1.59860267688001      0.68854544134488     -3.78239366286697
  H           4.60987427331448      0.50888030920779     -3.37890422739605
  H           2.65180622309872      2.75660569848181     -2.64368535012287
  H           4.48174322129578      2.84808061707584     -2.63879763642066
  H           2.60013107169693      0.95095748835642     -0.96556598594562
  F          -0.54496060917842     -3.14848087030630     -1.41536412836458
  F           1.57325302033551     -3.46565888685450     -1.66383751209750
  F           0.85089964179801     -2.25162216932780     -0.04106124098449
