23
Coordinates from ORCA-job NEB E -44.724116305770
  C          -0.20850732210125     -0.38841462892473      1.04220257142363
  C           0.43005280614550     -1.01944013877961     -0.03361021025360
  C           0.56853561727703      0.15106144255137      2.17693543789476
  H          -1.18501004099373     -0.76913936350820      1.29848720577556
  O           1.77357708829792     -0.85162578495443     -0.12064956034857
  C          -1.04968093810340      1.31938456238740     -0.10093284540114
  C          -1.78954612376283      0.51648262889156     -0.97359886480899
  C          -1.15009921807673     -0.23256950450850     -1.94069437500096
  O          -0.21907897087418     -1.55601838667538     -0.96736502926390
  N          -1.64140543502747      2.12819518654342      0.81042983202954
  H          -0.07003443848725      1.65436719789443     -0.41676313826638
  H          -2.79965663533212      0.25859846398380     -0.68911751004316
  H          -0.24632443036282      0.14896292054880     -2.39030496750863
  H          -1.72018854751655     -0.90458290197228     -2.55961837156808
  Cl          1.66304488173695      1.47431053956339      1.70576885797276
  Cl         -0.52082543323646      0.77144941955102      3.43935159090432
  Cl          1.59726772041123     -1.11659009590701      2.95671340696820
  C           2.40697595438029     -1.40346310648618     -1.26034600754276
  H           3.46609886044923     -1.45995012382023     -1.01949643465299
  H           2.25810757458423     -0.76237459847442     -2.13305328908519
  H           2.00987840309809     -2.39710240712237     -1.47739937281073
  H          -2.52640416412463      1.82708436273436      1.18871720933843
  H          -1.04677720838105      2.61137431648379      1.46434386424787
