23
Coordinates from ORCA-job NEB_product E -44.758156085910
  C           1.43972045687207      1.26149656017680     -1.41121677331412
  C           2.77704607343537      1.27679230754941     -2.16438623655153
  C           1.59671040439577      1.38342005431016      0.09623361622003
  H           0.98225381241963      0.28443046649718     -1.59864641387366
  O           3.68674929430473      2.03839919823972     -1.57786056491044
  C           0.56078594284449      2.33642525636745     -2.12336829471013
  C          -0.68876323521670      2.68769315577943     -1.35947558822036
  C          -1.89632950866082      2.28417197781515     -1.70720140369381
  O           2.94370915680087      0.66903117709868     -3.18442925038471
  N           1.38134309136674      3.49419221163996     -2.44797267271292
  H           0.27699484438395      1.88321379136627     -3.08137893431735
  H          -0.54926455793116      3.36014624402097     -0.52375369083416
  H          -2.05351341335458      1.62416871832869     -2.54457963750717
  H          -2.77494801883197      2.58502986015256     -1.16318821316781
  Cl          2.04655972482984      2.99347249572594      0.65953363165105
  Cl          0.08125998208811      0.91351901271480      0.91570857252423
  Cl          2.85287924573577      0.23545235093497      0.64691795306611
  C           4.92749212568760      2.16781171504225     -2.26201925910472
  H           5.38493444097812      1.18700740653378     -2.40417726222812
  H           5.55348325170327      2.79691917886853     -1.63494526009120
  H           4.76640670415124      2.63059473532375     -3.23669174900229
  H           1.68208833256610      3.97378166704605     -1.60591487170110
  H           0.84520184943154      4.14723045846750     -3.00778769713580
