23
Coordinates from ORCA-job NEB_reactant E -44.748026988450
  C           1.50430450735482      0.98870159359531     -0.08969803471920
  C           2.21596094521455      1.12146658683510     -1.22866791883028
  C           2.15617566587157      0.70740214542191      1.19802944189762
  H           0.43546702817144      1.07774036310635     -0.07997890636577
  O           3.54816155989423      0.98904687745284     -1.18890116740133
  C          -0.26637042605169      4.01821839748348     -2.95826898708127
  C          -0.06660358907997      2.98395330724892     -2.14034981813857
  C           0.33220450164938      1.63132120466859     -2.63086610955253
  O           1.73097723519708      1.36709566014297     -2.45142779834873
  N          -0.70484284934011      5.25748047034217     -2.56586901065578
  H          -0.17137293961319      3.89735310654932     -4.02945717806930
  H          -0.15519421967633      3.11555291072690     -1.07275017762866
  H           0.19889548353338      1.56344899767173     -3.71283915977777
  H          -0.24618332741868      0.83622248007545     -2.14725792780612
  Cl          3.32674998498498      1.98990793076513      1.65558990149458
  Cl          0.95153413461295      0.59505598658770      2.48817034301866
  Cl          3.07754096636305     -0.83501466739635      1.17688874688105
  C           4.26618777001724      1.12468623537486     -2.40162478198131
  H           3.96450299299872      0.36243118050496     -3.12324246945053
  H           5.31139833574678      0.99147513341832     -2.13172046797382
  H           4.11349484706562      2.11365707003341     -2.83925685301637
  H          -0.63362553259403      5.45940021724332     -1.58081293327254
  H          -0.49196307490179      6.03289681214759     -3.17018873322201
