22
Coordinates from ORCA-job P E -34.972019539190
  C          -1.35936113382012      0.38359986843174     -2.37532537271716
  C          -0.14642411928114     -1.71200105877489     -1.06168307104026
  C          -1.53735122330212     -1.90222989420621     -1.58378150651539
  C          -2.11393451968182     -0.90318271651830     -2.23062607754395
  C          -0.79417170278887      0.76864212434170     -0.99688681574842
  C          -0.02822560866776     -0.37546543323458     -0.30272739585374
  H          -2.01480235753183     -2.85569806494253     -1.42729350672875
  H          -3.10898722737719     -0.97023732698220     -2.63942578704095
  C          -2.22465045087960      1.50885600716738     -2.92964752428875
  H           0.13608880970663     -2.53849672501501     -0.40891348942277
  H          -0.51686502167778      0.21950093011566     -3.06012084302453
  H           0.54375673585628     -1.70228975499905     -1.91353682457007
  H          -1.62967414366159      1.07029398662949     -0.36230785378198
  H          -0.45087528472081     -0.52829873035572      0.69856907586163
  H          -0.15480337268201      1.64572812122977     -1.11956252756730
  C           1.42945005536938     -0.00153159060853     -0.08986477875001
  H          -2.59994627638628      1.24331685322452     -3.91480777825724
  H          -1.64906723687041      2.42741331981379     -3.01859718776473
  H          -3.07314601848020      1.69614236506584     -2.27465630166757
  Br          1.57984984659435      1.58482929857472      1.05798953372061
  Br          2.42648357799545     -1.43147740551547      0.80175750681066
  Br          2.34009667228745      0.39556582655785     -1.76854147410932
