22
Coordinates from ORCA-job TS E -34.864716631770
  C          -0.77991848648971      0.34518493720851     -1.18997149970983
  C           0.47697615092985     -1.98521387216409      0.00993727796253
  C          -0.85692374640852     -1.87359873234428     -0.16583016637348
  C          -1.47150323700272     -0.75771319202682     -0.78042113336914
  C          -0.12692730582728      0.97627382577846      0.81080834457682
  C           0.67995276058224      0.05165697251370      1.40374478981722
  H          -1.51001786350898     -2.58899814852868      0.31597297882433
  H          -2.55188781281267     -0.70471396818501     -0.74059460810693
  C          -1.47702035035746      1.53296036526432     -1.77227999896716
  H           0.88468437930751     -2.80273083308665      0.58074676717005
  H           0.25888025237433      0.25190460635559     -1.46965414890734
  H           1.17715823904365     -1.43945502525014     -0.59559384555284
  H          -1.14447653663959      1.07506729657732      1.14062934408828
  H           0.29531889800973     -0.62863496153761      2.14773350777809
  H           0.30622309527383      1.84174479871987      0.33759209447118
  C           2.14499787825249      0.19763069017262      1.39774173996796
  H          -1.60448012305481      1.38247555262887     -2.84510401106849
  H          -0.89447798287105      2.44126164719386     -1.63895467584263
  H          -2.46068940688891      1.67281609350292     -1.32999249659680
  Br          2.67612174804024      1.63400870105880      2.73746327625642
  Br          3.09632621645867     -1.40473330467873      1.95427162552950
  Br          2.88168323358917      0.78280655082716     -0.30824516194774
