17
Coordinates from ORCA-job NEB E -33.251311797730
  C           0.76685882787950     -1.04918867738809     -0.46439963070255
  C           0.38778975606490     -0.29658832280565     -1.59818008290890
  O           1.99163364289393     -0.82962412895738      0.09125359644712
  H           0.39832192610366     -2.07068433203188     -0.40636044020391
  H          -0.44658684139263     -0.70944643025345     -2.17904951639622
  C          -0.38916508964515     -0.04320817115057      0.85104347760856
  C          -0.71716438938219      1.21337477125174      0.31173764824117
  C           0.30628975690756      1.95528065737199     -0.25732841594175
  O           0.66668660060114      0.92546728288624     -1.71525179086305
  N          -1.46190798966581     -0.95818184453671      1.14042304291110
  H           0.39485852996040     -0.10105131845266      1.59869930459304
  H          -1.72988554210850      1.34014543691891     -0.04980740200133
  H           1.29717343493867      1.89122940182032      0.17064950044473
  H           0.08095472893893      2.88166973167612     -0.76050031037278
  H           2.17780319253703     -1.47622589763776      0.78236308759677
  O          -2.49692444654638     -0.84982466545490      0.52344130182495
  O          -1.22673609808505     -1.82314349325628      1.96126662972307
