17
Coordinates from ORCA-job NEB_reactant E -33.294341839580
  C           1.52560191531211     -0.15601639984370      0.07939553589901
  C           0.95195347543647      1.00066801535801      0.39684689315989
  O           2.55178483523009     -0.69957570945616      0.79314989828688
  H           1.17872701903461     -0.69010153343540     -0.79425890793817
  H           0.13354937340437      1.38211473933866     -0.20182768806229
  C          -1.21904743917569      2.23752805561324      3.90572876862259
  C          -0.61165310691778      1.81601620312424      2.80333398048331
  C           0.38797185004640      2.59967050668428      2.01486316953628
  O           1.37403913259657      1.78872894768892      1.43790401881430
  N          -2.17896507100967      1.41730945603048      4.58368393099491
  H          -1.05999457670299      3.19377347981903      4.37977433646984
  H          -0.83842959108778      0.82447329835697      2.42689144437485
  H           0.91526601499279      3.31553251869167      2.65054161818653
  H          -0.15601869401310      3.16126614260009      1.23355638377743
  H           2.84578026282721     -1.51820075527153      0.38387327817411
  O          -2.45686578613137      0.33861118070932      4.10630084499964
  O          -2.65559961384223      1.87180185399188      5.60154249422090
