17
Coordinates from ORCA-job NEB_product E -33.302449313550
  C           0.65843534188689      0.18494473486998      1.74348758669915
  C           1.32933641263784      0.84884847825444      0.56000666683010
  O           1.58138152531305     -0.53700877158427      2.49477718860922
  H          -0.12846496956950     -0.49331819895729      1.37162087707187
  H           0.65934130525520      1.41862531633975     -0.10162602000445
  C          -0.03145669213509      1.25626012800477      2.62358443182737
  C          -0.93640500563803      2.16857258106978      1.85408511721290
  C          -0.83820760822645      3.48482614582163      1.87625598072299
  O           2.50964832931024      0.75754065634109      0.37379033864743
  N          -0.89225119994090      0.52874053549588      3.61357794639338
  H           0.71468252228043      1.80846846103603      3.20223884747053
  H          -1.71670796660777      1.66777301124944      1.29664956371963
  H          -0.07373240639492      3.99032041054674      2.44247884784972
  H          -1.51734636577283      4.10897775592345      1.32294002702744
  H           2.46330705310219     -0.37169159235426      2.11984149337900
  O          -1.67508411523021     -0.26761767842847      3.16603729975691
  O          -0.76107616027013      0.83083802637131      4.76795380678682
