21
Coordinates from ORCA-job NEB E -46.043530657520
  C           0.29560510716522     -0.64218476369461     -0.64381936641301
  C          -1.00696977268674     -0.10562493924123     -0.70575946455212
  C           0.51210082012341     -2.03251305487558     -0.07837155822788
  H           0.88550186833549     -0.53729586164441     -1.55293660692757
  C          -1.29329459042429      0.88937988272064     -1.82502799192704
  C           1.15062547174467      0.55204235293398      0.62829828762887
  C           0.23584661532424      0.52293716381142      1.70005869776918
  C          -1.07585943183920      0.98422567877693      1.52402592782042
  O          -1.75445293624254     -0.06922896046439      0.33309090684013
  O           2.38311442909506      0.04530962108442      0.88573989203717
  H           1.13560367318025      1.42351014860053     -0.02571091652287
  H           0.45476317447548     -0.16669929076779      2.50045036282425
  H          -1.22471086099010      1.91014044604622      0.98118764159067
  H          -1.76548542378960      0.83955999463352      2.34256890949774
  F           1.81977866355272     -2.37998432004687     -0.18109516445104
  F           0.17450064951957     -2.18371627872782      1.21326344831800
  H          -0.06360983475683     -2.77503221540278     -0.65852169849988
  F          -0.55319379391668      2.03106202241558     -1.67599963826033
  F          -0.93223565441473      0.38271569248626     -3.02739283616247
  H          -2.35205617990308      1.17868877188287     -1.86391749225867
  H           2.97442800644767      0.13270790947310      0.12986865987644
