21
Coordinates from ORCA-job NEB E -44.228954426160
  C           0.05449136422894      0.33317902676559      0.84627648113997
  C          -1.13830682735558      0.49698813193224     -0.04094666906881
  C           0.83804191595704      1.65713322444788      1.02774767305375
  H          -0.26339741386145      0.04207490109907      1.85606087206920
  N          -2.00227730976602      1.56746451811559      0.08453443802262
  C           0.98600400605288     -0.78202563326766      0.30791536589379
  C           0.20262739419259     -1.92073881129851     -0.22324667001901
  C          -1.00481590537710     -1.67195679541178     -1.00333369728570
  O          -1.54175408001730     -0.38922468216523     -0.96210563043541
  N           1.81874185775543     -0.26427785936576     -0.77541908460500
  H           1.66653092234986     -1.09363172915803      1.10648407962831
  H           0.62862608440375     -2.90690377032026     -0.25573270433148
  H          -1.80100518846186     -2.34451480621530     -0.64745445178774
  H          -0.88527657765226     -1.91690359370458     -2.07118094065244
  F           2.02452270165018      1.39105267589778      1.62357370802338
  F           1.11834163968921      2.22968232387070     -0.16182405576621
  H           0.29754186177976      2.39012995967221      1.63995726174085
  O          -2.94529426212467      1.64484468526889     -0.69824679608598
  O          -1.79391592216562      2.36679960085177      1.00656786148629
  H           1.27999876303304      0.13329782152178     -1.53505781781747
  H           2.46057497568919     -0.96246918853635     -1.12456922320290
