21
Coordinates from ORCA-job NEB_reactant E -44.278372231030
  C           1.88329298516481     -0.19516734382185      0.13630365092445
  C           1.59620352685316     -1.47924814377737      0.36181135090657
  C           1.86104765356155      0.38607787085688     -1.24258385117517
  H           2.15714243448169      0.45923483598350      0.94945893557752
  N           1.66491504969233     -1.98645873661604      1.74971648522771
  C           2.65776978248919     -5.23486370743282      0.08634024163606
  C           3.03405066990866     -4.00045549334971     -0.26936387411958
  C           2.24297319545585     -3.16678039992036     -1.20669761579848
  O           1.20190506348360     -2.38417093360803     -0.52921779692573
  N           3.35270726849497     -6.05687514962056      0.92160796542431
  H           1.77563223290148     -5.67653074705697     -0.35647201474107
  H           3.90104757101692     -3.54290846420530      0.18674443357786
  H           1.66249127876591     -3.77544044759624     -1.89956026624559
  H           2.87711498435233     -2.46507180101541     -1.75835090822283
  F           1.60372829607310      1.70956280311485     -1.20448846859616
  F           3.07998058563056      0.25558130244596     -1.83917535096784
  H           1.12001798682835     -0.09623851854745     -1.89990635810728
  O           1.40840834521786     -3.15527299851859      1.91039923747772
  O           1.98438921008977     -1.20455628702484      2.61672769055230
  H           4.05487411641348     -5.62095757326906      1.49870523221988
  H           2.84420776312443     -6.80326006702057      1.36390128137532
