21
Coordinates from ORCA-job NEB_product E -44.276534715510
  C           2.05099398239394     -1.69086655068112     -0.02871771838800
  C           1.23352462642035     -2.06109101014677      1.21625955652228
  C           1.18628164909800     -0.92833327384999     -1.02654662607234
  H           2.91498085965593     -1.07330326213148      0.22774266872159
  N           2.12499069272830     -2.34076761012044      2.43880832663912
  C           2.43205024601219     -3.11279002077213     -0.49645458119418
  C           3.89592590897134     -3.40562181163478     -0.38623179601504
  C           4.63411539241461     -3.79779367424822     -1.40730833821083
  O           0.06746417718584     -1.89726501787175      1.40844829704033
  N           1.63418938348676     -3.89721071006770      0.47803430467827
  H           2.09801212613967     -3.30072451433104     -1.52174493846360
  H           4.32421902778811     -3.25930473760457      0.59544764596687
  H           4.21970078285801     -3.93268931578370     -2.39319128317506
  H           5.68667197779044     -3.99201404561658     -1.29982611607445
  F           1.95737010350373     -0.42296318053007     -2.01880233517954
  F           0.29512469350361     -1.74651066325164     -1.63045842757697
  H           0.62763673341013     -0.10074158015883     -0.56538991532911
  O           1.57054333101988     -2.79282976526123      3.40241146672789
  O           3.30487688415294     -2.09009584782326      2.33886822316462
  H           2.15130001642860     -4.63904339763003      0.93822674621330
  H           0.76912740503764     -4.25854001048465      0.09362484000486
