15
Coordinates from ORCA-job NEB_reactant E -30.480175638160
  C           1.39666446102287     -0.04314419939237     -0.41971096485707
  C           2.34407459898625      0.86404905662604     -0.64216383712359
  Br         -0.35166147022259      0.50192520474191      0.00974113526781
  H           1.56105212240242     -1.10356585917238     -0.43795364028681
  Cl          3.93990525213685      0.28994096557331     -1.06165864414778
  C           1.79320727868797      3.82132266382608     -3.36660024280620
  C           2.61305507260239      2.98707262882003     -2.73869480037638
  C           2.92020535254085      3.09550078207260     -1.28020670020780
  O           2.15359622713932      2.16924240976624     -0.49866817303574
  O           1.45636421224376      3.77397485548885     -4.66678693369879
  H           1.32340844773808      4.65638760793707     -2.86639292803131
  H           3.05731096303064      2.15161779093996     -3.26448228577345
  H           2.62445726391044      4.06933127460613     -0.88826340275591
  H           3.98642425571887      2.92842231510563     -1.09090705831696
  H           1.87143596206187      3.01402250306089     -5.09615152385000
