21
Coordinates from ORCA-job NEB E -38.031999677080
  C           0.59456104327824      0.70705807441131     -0.46362103060773
  C          -0.24402159022625      0.95605430344301      0.63239228514495
  C           0.13080579632583      1.13323407949010     -1.83754537247109
  H           1.65058468350430      0.90083906698566     -0.30146696989090
  C           0.35991476933553      1.08888792622555      2.01370672750090
  C           0.38250795305701     -1.27370596843992     -0.59979309289224
  C          -0.66927303052887     -1.65287171285136      0.25003304227368
  C          -1.87621579871930     -0.94093212523734      0.10954579584942
  O          -1.49237252190015      0.64451641239617      0.59712603511687
  C           1.68225051961589     -1.77663152988848     -0.31365060519184
  H           0.16149588758068     -1.22878676104886     -1.66057844177767
  H          -0.41592150897502     -2.03809728926687      1.22984375846833
  H          -2.68078744700521     -1.15890930914411      0.79874180876042
  H          -2.22043344399779     -0.73973793355088     -0.89897043311854
  F           0.35762888043414      2.48246399940710     -1.97330678164748
  H          -0.94537652130680      0.98768056895297     -1.97459769635968
  H           0.70147886347059      0.65239497441184     -2.63968670556495
  F           1.65028201268706      1.53023336906433      1.97287098770871
  H           0.36510451745863      0.10451522251758      2.50685866522772
  H          -0.21915841399140      1.79435801287211      2.61810137979991
  N           2.72694534990291     -2.17256338074992     -0.06600335632880
