21
Coordinates from ORCA-job NEB_product E -38.086231886270
  C           2.26257732727389     -1.65149572852087     -0.24569883458634
  C           1.12755500401944     -1.02948240416491      0.55828826454954
  C           2.64824069065178     -0.64686972569024     -1.33951791238415
  H           3.13140824429193     -1.83411424447397      0.39187757701463
  C           1.51230402224353     -0.44249770679116      1.90284305103869
  C           1.76594447569164     -2.97300416520760     -0.86857333667021
  C           1.46117494931755     -3.97744857987446      0.21564333827487
  C           0.26634326562473     -4.50011169941970      0.40753891700957
  O           0.00838105230254     -0.93910825824485      0.13045257726368
  C           2.77232768661825     -3.52621194047630     -1.74652830676928
  H           0.86037247221378     -2.77148460131126     -1.45374797592671
  H           2.30038460583824     -4.24331347324853      0.84401415089774
  H           0.08135975962929     -5.20722752078724      1.19729598582565
  H          -0.57701376807371     -4.23937988594537     -0.21057705257814
  F           3.09916824459972      0.51275103771437     -0.76458766514412
  H           1.78239774217457     -0.38325544280322     -1.95656033387819
  H           3.45989655843273     -1.03525012837245     -1.96281805788158
  F           2.55703905619818     -1.10893831734281      2.48131150367793
  H           0.66625376055371     -0.47122845999033      2.59559367284292
  H           1.83371557746256      0.59565950105194      1.74467143337681
  N           3.57376927293563     -3.97898825610102     -2.42362099595330
