21
Coordinates from ORCA-job NEB_reactant E -38.071001353410
  C           2.07304493598257     -0.35937345726952      0.08732178240777
  C           1.41066193111984     -0.95330811387948      1.07359619574666
  C           2.16264557297750     -0.67100035109439     -1.37468562736123
  H           2.64472311736666      0.51644401307739      0.35800500461190
  C           1.46288143370250     -0.41785839690848      2.48852791070286
  C           1.94487649195474     -4.44830859593589     -1.33292625064110
  C           1.70968670476186     -3.74099285555479     -0.22865441197449
  C           0.48218715182726     -2.90973435317119     -0.01490268200924
  O           0.58297368608254     -2.04385600376905      1.09259673271067
  C           3.09641841047632     -5.24521347985431     -1.48529826732608
  H           1.26034978915545     -4.44876107749091     -2.17197402278680
  H           2.40875591434765     -3.76202452875719      0.59680496224878
  H          -0.35262847944981     -3.57189772783249      0.25026785927978
  H           0.20302439774708     -2.36666963615438     -0.92585222560311
  F           3.16924337823687      0.07777055907780     -1.93259053487233
  H           1.24837068247693     -0.38888932141285     -1.91477814273422
  H           2.41537431965804     -1.71715475923861     -1.58277123327255
  F           2.04318162501460      0.81439224392682      2.55560165460881
  H           2.04798086023304     -1.08828522710705      3.12927829484932
  H           0.44663140111233     -0.32935021619469      2.88731863061620
  N           4.03581667521604     -5.88702871445676     -1.62408562920157
