23
Coordinates from ORCA-job NEB E -40.060089584320
  C           0.63194009677772     -0.17573207518310      0.19831166799779
  C          -0.20695140086722     -1.24126592633716     -0.19001008628694
  C           0.28887233271785      0.58260114232978      1.45811749801066
  H           1.69620697904790     -0.38060738339443      0.09152126562947
  N           0.34189916415379     -2.23216550220056     -1.08400819768154
  C           0.22875743534604      0.98767063166843     -1.23673303317351
  C          -1.17321431396108      1.07696068166574     -1.20647091071965
  C          -1.92985730168322     -0.13034882797870     -1.41479179545555
  O          -1.50036893413395     -1.06981870013712     -0.25764928519916
  C           0.97142528983349      2.17910722378935     -0.97430643825667
  H           0.68537436853233      0.39995571034117     -2.03165190947865
  H          -1.62866034978282      1.89046901792860     -0.66080677053744
  H          -1.68856374786070     -0.70440429540330     -2.31120899840874
  H          -3.00249337101917     -0.03671429242742     -1.28155818635868
  C           0.82058660177274     -0.19013873498360      2.66404641123232
  H          -0.79394559100687      0.68986178002164      1.54257628425708
  H           0.74244561341028      1.57454049316144      1.43784891981727
  H           0.34083144078873     -1.16309178598387      2.73444645362586
  H           0.61704102312936      0.36580623286618      3.57521509935172
  H           1.89471522979386     -0.33784190860918      2.58385125859548
  O          -0.44296922811337     -2.83871326684731     -1.78782333623373
  O           1.55176333443241     -2.38588365541229     -1.08343666613807
  N           1.55516532869192      3.13975344112576     -0.76547924458932
