23
Coordinates from ORCA-job NEB E -37.275883786110
  C          -0.36503646180552      1.07343717990726      0.75191549376001
  C           0.41181887239721     -0.07047272127610      0.88122582488744
  O           0.03597603192836      2.28323358543275      0.25477809368101
  H          -1.14942661252610      1.20797220943531      1.48796755018183
  O          -0.08338456880079     -0.93459761106072      1.83415487374460
  C          -1.50082248215486      0.31631080634126     -0.98959177111510
  C          -0.94001669908199     -0.91270840639130     -1.27074842001647
  C           0.43606258518185     -0.99352339316804     -1.52187620386737
  O           1.23921384572969     -0.49984964429623      0.01243657964923
  O          -2.79152622192927      0.37401065142823     -0.57543537560720
  H          -1.11903180011641      1.19709141548436     -1.49646170460638
  H          -1.46173986226709     -1.78138844296569     -0.89417613630511
  H           0.89264588461981     -0.21631229327495     -2.11904616668866
  H           0.87729800246171     -1.96843793618208     -1.66500831722569
  C           1.33061476399947      2.36743987350624     -0.29890958466781
  H           2.07934292262085      1.98901502795890      0.40185907792094
  H           1.50073304765843      3.42587615791657     -0.49145116391373
  H           1.41363246000200      1.80679902116243     -1.23301099187728
  C           0.46585205340015     -2.23686995126925      1.83686355091711
  H           1.54980829866520     -2.20129446486291      1.97775121232024
  H           0.24887200722569     -2.76244881217836      0.90445653055454
  H          -0.00327277052854     -2.75260333891452      2.67155412114278
  H          -3.06761329667985      1.28932108726686     -0.45924707286893
