23
Coordinates from ORCA-job NEB_product E -37.327575810280
  C           0.60829815340057      0.40410820023308     -1.39747823227454
  C           1.53139934139481     -0.78184316519378     -1.11408901821613
  O           1.32506273744525      1.55643606880494     -1.74862604010797
  H          -0.02689105285994      0.57926212926800     -0.51558134816617
  O           1.01614769083809     -1.56443919705279     -0.16053027194772
  C          -0.30614822578790      0.04437968708589     -2.59056624735340
  C          -0.62538283326498     -1.42709936678652     -2.60140170190714
  C          -0.09727278430491     -2.29030943570098     -3.44778047890384
  O           2.57272431465625     -1.00091480084862     -1.66891675214235
  O          -1.47595355855362      0.82230373323757     -2.45339231499678
  H           0.24828846411689      0.32286904280616     -3.49765707952390
  H          -1.34295313113471     -1.73325560847388     -1.85213676856027
  H           0.62114015698564     -1.98496598468246     -4.19060126108294
  H          -0.34745023978391     -3.33749568972006     -3.42314372116793
  C           2.05312158210234      2.11957906560294     -0.68399365067044
  H           2.51017816112024      3.02512613422323     -1.07682881580172
  H           2.83738750616057      1.44222511728583     -0.32889438309640
  H           1.39280050896139      2.37495717530784      0.15399731941148
  C           1.74425738068451     -2.75152542794998      0.13290218386568
  H           2.76315181867303     -2.50551418964574      0.43751795999741
  H           1.78497418270768     -3.39221629868547     -0.74990144090343
  H           1.20964336612257     -3.24366593311494      0.94076301622127
  H          -2.00802353967986      0.72679874399973     -3.25056095267275
