23
Coordinates from ORCA-job NEB_reactant E -37.304895366190
  C           1.22553302750656      0.12618532466770     -0.21582504662343
  C           1.32189332421150     -1.10874896818951     -0.70833677996742
  O           1.16231736406387      1.23575729708833     -1.01220246356141
  H           1.14262133283922      0.27183968072892      0.85381745137770
  O           1.16275206050240     -2.17739905554079      0.14760850761990
  C          -0.80843995247156     -0.27927571870379     -4.21901608864339
  C          -0.59139903699613     -0.77457819704607     -3.00910817064837
  C           0.37974287093107     -1.87472872677808     -2.72953862913551
  O           1.53314028475614     -1.39156693725711     -2.02585722254974
  O          -1.64790571838878      0.73624439582346     -4.51925633029581
  H          -0.33785102045324     -0.67616924537635     -5.10693527093111
  H          -1.07191434522786     -0.33844275253618     -2.14316048225150
  H           0.77206775731488     -2.29358285441477     -3.65830439027620
  H          -0.09821400311004     -2.66908624412423     -2.13959136992990
  C           1.53310477880346      2.43471498466821     -0.37663344298578
  H           1.33862820330622      3.23311911936253     -1.09057147732091
  H           2.59638202338993      2.43569854439642     -0.11370348987845
  H           0.94279739914388      2.60397906464158      0.53153790944957
  C           2.13555804366296     -3.20144633677717      0.01651529173110
  H           3.10013523782840     -2.86749807500408      0.41172324191383
  H           2.26252661991608     -3.50086354252162     -1.02663152692659
  H           1.76876994490524     -4.04222713454187      0.60169314987049
  H          -2.02154619643420      1.09787537743447     -3.70512337003709
