19
Coordinates from ORCA-job NEB_product E -43.197337044600
  C           1.27747118997235     -1.52019805544113      0.57568922711325
  C           2.59788286389571     -1.41073925643501      1.34220188422730
  C           1.52770824256541     -1.47384467652931     -0.93125917321549
  H           0.63363760495392     -0.66817669316837      0.81781356541412
  C           2.35744028556025     -1.31548603765842      2.77517288467865
  C           0.58923315078392     -2.83736512019345      1.04211265278862
  C          -0.53359083665184     -3.24529703279432      0.13045006660743
  C          -1.80229750272484     -2.97525890690438      0.37105008846767
  O           3.68886162716779     -1.40982176164472      0.85615591935058
  O           1.61285949552904     -3.80345836805928      1.11258447254355
  H           0.18915161594060     -2.64479509200006      2.05327222628058
  H          -0.22972010707369     -3.79206070677435     -0.75159592297470
  H          -2.11178287840268     -2.43014832630368      1.24786638810881
  H          -2.58065536868778     -3.28386962645633     -0.30350934410657
  F           2.11625900346430     -2.55942469933282     -1.42111602757498
  F           0.37016322737173     -1.32548714616553     -1.60586094312209
  F           2.27613591919948     -0.41769016401724     -1.27008452458497
  N           2.15461805096374     -1.23679432613640      3.89785285460155
  H           1.22892441617263     -4.68688400398522      1.12450370539670
