19
Coordinates from ORCA-job NEB_reactant E -43.212352341500
  C           1.70600709896933      0.02265840613955     -0.00047224653017
  C           1.02607203509550     -0.78035558875957      0.84173566598992
  C           2.12948350072197     -0.45422744938137     -1.34981039699098
  H           1.97156482448288      1.03018471215356      0.26436018907231
  C           0.65267545850906     -0.24773056908743      2.11436283669210
  C           0.28695248406316     -5.26596505151506      1.33947660186243
  C          -0.25715735396530     -4.15567406831380      0.85678936366603
  C          -0.04034827478715     -2.81002846888332      1.46187043765887
  O           0.70155087987502     -2.03128912117315      0.51609985234092
  O           0.14093021794963     -6.50204470670149      0.83559817655875
  H           0.89677380678687     -5.27416937195648      2.23230425143481
  H          -0.85352721839706     -4.17423479892565     -0.04439916674937
  H           0.52077578565581     -2.89110687657568      2.40015972871968
  H          -0.99825854590159     -2.31052985654878      1.66211416608002
  F           2.98190915108280     -1.49332766872112     -1.29741089190447
  F           1.09737191738954     -0.85868835882748     -2.11181438805720
  F           2.75238372005423      0.51303774072481     -2.03753489320982
  N           0.35193010797814      0.17876116354176      3.13312451315055
  H          -0.38598959556283     -6.47587006718931      0.02564620021562
