34
Coordinates from ORCA-job P E -42.564317210620
  C          -1.14698622039397     -0.14008023494076     -3.23406651500654
  C          -0.32967012142201     -1.77711957030858     -0.86983147271479
  C          -1.59190979331732     -2.01650253413732     -1.63462673949226
  C          -1.95951126145744     -1.27361413928121     -2.66493618883618
  C           0.14891798260980      0.10948371353585     -2.44070621970275
  C           0.06202879026425     -0.29925327018936     -0.96566917888990
  H          -2.20997356632425     -2.84153663871434     -1.30572464156794
  H          -2.88702016050024     -1.48130028192410     -3.18165402900791
  N          -1.89684567133246      1.10500414693137     -3.42322160653464
  H          -0.46498177588246     -2.05953170863577      0.17699838808056
  H          -0.85161848313209     -0.43884671710200     -4.25043103796707
  H           0.46815838361154     -2.40659039390256     -1.27501699332373
  H           0.40336379104579      1.16732800434716     -2.52130046326756
  H          -0.73152962242302      0.27711323587703     -0.48147174732623
  H           0.95508477077119     -0.46003382738661     -2.90549149251817
  C           1.35744512706588     -0.01366433738984     -0.25127992632769
  C          -2.85022871224131      1.04182099281580     -4.50997324792291
  C          -2.50987724569058      1.61936663925012     -2.21752478179056
  H          -2.35709223977518      0.66172233256488     -5.40372252375521
  H          -3.20473304644894      2.05191526776189     -4.71766551646527
  H          -3.72676276841802      0.41110842453330     -4.29718335536659
  H          -1.73764494273900      1.84879748665766     -1.48731397153391
  H          -3.23370720419028      0.92306285425678     -1.76689722615341
  H          -3.02906443676869      2.54616340249671     -2.46051999163262
  C           1.39299999289253      0.89940730956424      0.79512806407497
  C           2.57409177756623      1.17417432627035      1.46173475440888
  C           3.74432886026067      0.53635330838041      1.09036720873724
  C           3.72290596145177     -0.37539644428764      0.04885549482275
  C           2.54055661055349     -0.64674724373149     -0.61501062411078
  H           0.48322226012431      1.40231701918554      1.09321940121100
  H           2.58017953674163      1.88758345296083      2.27316359617313
  H           4.66782845589324      0.74799842749050      1.60894788063058
  H           4.63241642798045     -0.87783649412203     -0.24780488052013
  H           2.54383854362446     -1.36067650882680     -1.42589041640439
