34
Coordinates from ORCA-job TS E -42.474338462690
  C          -1.32341406111246     -0.20691402206056     -1.36709264891132
  C           0.18340920629929     -2.17840219155636      0.07828738849363
  C          -1.12674397059356     -2.35342546668967     -0.25484074271788
  C          -1.87499836491271     -1.40473842529237     -0.96488345455930
  C          -0.90395689705791      0.52470394560330      0.72330545708454
  C          -0.06265215934942     -0.33749802372742      1.37731065240899
  H          -1.67648263239747     -3.16378177978737      0.20666098424159
  H          -2.94192410342634     -1.55539798334330     -1.02203739385209
  N          -1.99649702621146      0.77902548618359     -2.04333959182531
  H           0.67640435419019     -2.89227834400247      0.71822180097184
  H          -0.25611549523354     -0.16612423661543     -1.52188482881365
  H           0.84573439633143     -1.58775968977485     -0.52765969421046
  H          -1.95220002526393      0.52689710795929      0.96600840759274
  H          -0.48915044906087     -0.99591327305910      2.12086195840866
  H          -0.52118733759308      1.42517249146190      0.27757925811539
  C           1.38000897769683     -0.13410323368837      1.48542622023077
  C          -1.30638041940117      2.01491145717737     -2.31701666550861
  C          -3.42364550468169      0.91644964454524     -1.87639349105280
  H          -0.24633232298174      1.82083331855177     -2.46928461184018
  H          -1.41830427713105      2.74435670347512     -1.50367141319702
  H          -1.70809437548632      2.45840760032064     -3.23003689094643
  H          -3.69691186537348      1.20139423848173     -0.85291723981641
  H          -3.91891723630109     -0.02062732388813     -2.12367651691557
  H          -3.78679630075352      1.68321040982108     -2.55889365765583
  C           2.10060501525816      0.66082655022648      0.59282752537193
  C           3.46347814112462      0.83414461444946      0.73585266518318
  C           4.14303657957066      0.21879807735308      1.77392280666380
  C           3.44395997382608     -0.57597621371546      2.66717463456189
  C           2.08206335311494     -0.75238784901495      2.52144981792579
  H           1.59223532735947      1.14561440557429     -0.22790744916180
  H           4.00197925572576      1.45279152088664      0.03142068448545
  H           5.20877622060222      0.35570896795854      1.88380411919771
  H           3.96528100696677     -1.06196094564666      3.47972170269347
  H           1.54373301625639     -1.37595753816705      3.22170020735333
