20
Coordinates from ORCA-job NEB E -40.020959582720
  C           1.12795300966851     -0.67333081866542      0.03097746354651
  C           0.73220699554705     -1.61490282166922     -0.91352415608475
  N           0.97121489777410     -0.90611414519537      1.43474635555950
  H           1.96647699800931     -0.02365658972286     -0.18484786665647
  Br          1.58005111890213     -1.28941785626059     -2.68608667112922
  C          -0.60383386583881      0.63834707588493     -0.14875223864156
  C          -1.58116896415135     -0.34771447972475      0.03894330624994
  C          -1.82483529794968     -1.30421117447738     -0.92359925595419
  O          -0.23374881243103     -2.36204746612842     -0.89022279241754
  O          -0.41857628006495      1.54070477686714      0.80145613901532
  H          -0.29961912262148      0.91159154438547     -1.16030754576508
  H          -1.93617633196222     -0.49922161845595      1.04746403208961
  H          -1.67723029648044     -1.07631744046956     -1.96990692506292
  H          -2.52076089670774     -2.09868414883580     -0.71218693901508
  O           1.61809691415773     -0.17188823986874      2.15637659562689
  O           0.22284756781648     -1.77491430955234      1.81569658190211
  C           0.53986215707714      2.56260352338562      0.59239770898854
  H           0.66532991178413      2.78353354317705     -0.47041423079376
  H           0.17644920802251      3.44619453250926      1.11430208748406
  H           1.49546108944862      2.25944611281691      1.02748835105806
