20
Coordinates from ORCA-job NEB_reactant E -40.049416078570
  C           1.90731311856762      0.07102917477235     -0.11575539072241
  C           1.12028710033613      0.72482690000023     -0.99608465274564
  N           2.32755848243173      0.62867033320967      1.11448728822277
  H           2.26359860458054     -0.92774011180707     -0.30316545798570
  Br          0.65327249011834     -0.22546403039827     -2.59334567893472
  C          -0.00218075750409      5.04230420846531     -1.86234509940818
  C          -0.45794632551772      3.95340300816896     -1.24808260342780
  C          -0.19275340390641      2.58153215201867     -1.76753722390352
  O           0.67588062517188      1.93071043076750     -0.83140238713321
  O          -0.14317264613179      6.32402235114335     -1.50115344869909
  H           0.54083808045135      4.97840858216906     -2.79742595392293
  H          -0.98731379080157      3.99624181838699     -0.31108612543232
  H           0.29107947932466      2.62043944746820     -2.75017720347184
  H          -1.12040239941315      1.99894086739660     -1.84437459404208
  O           3.04428398158452     -0.07442857576156      1.80071126314510
  O           1.95955208427994      1.74569831698230      1.41662740509650
  C          -0.79290323122206      6.59760792415755     -0.27749541916898
  H          -1.83352764235814      6.26157552764481     -0.30126878997464
  H          -0.27498583466978      6.11797240999574      0.55738691694281
  H          -0.76117801532202      7.67854926521961     -0.15671284443412
