22
Coordinates from ORCA-job NEB E -37.463924063510
  C           0.65966010340775     -1.83364920964219     -1.21507228651545
  C           0.52081258338055     -0.51877254708237     -1.36210951433511
  O           1.50958531175993     -2.39054549528998     -0.29040180951983
  H           0.09673311612146     -2.50982443468557     -1.84700028010338
  F          -0.39896557570947     -0.06242565461292     -2.25078859812683
  C          -1.80144934979048      1.59085041642249      0.22600928373165
  C          -0.51841187094557      1.47099877392708      0.55178343554786
  C           0.57478625729883      1.66254503355940     -0.44954225913824
  O           1.23817315533294      0.42418236132381     -0.75559050429917
  O          -2.88542599894534      1.42603873759912      1.00740888472044
  H          -2.10756637152333      1.87510530577008     -0.77286568563842
  H          -0.19775733852462      1.16374269395017      1.53452509815749
  H           1.37649555714093      2.28734563333086     -0.04980008499963
  H           0.18547616645517      2.10961725206255     -1.37049608514194
  C           2.82916990671526     -2.58787022279709     -0.76481089481775
  H           3.37489253564981     -3.06262144760807      0.04805689125138
  H           3.30096196318097     -1.63364498813303     -1.01835588670555
  H           2.83952198626312     -3.24094017946809     -1.64451610221836
  C          -2.67588055679615      1.03323526658296      2.34511804984278
  H          -2.09434542271478      1.78327847344306      2.88985130216115
  H          -2.16158622022860      0.06917829145381      2.39800770791276
  H          -3.66487993752836      0.94417593989391      2.79058933823413
