22
Coordinates from ORCA-job NEB_reactant E -37.466863128740
  C           0.89565003093838     -0.12167123141503      0.35098027085169
  C           0.76718212619146      1.13331009243889     -0.06999341917296
  O           1.52785404898678     -0.44088658058007      1.51430145182512
  H           0.49458818221895     -0.92905962241227     -0.24820747405085
  F           0.01434191503614      1.34127537639558     -1.19582732643787
  C          -1.75056055415702      2.29415789492393      1.79888175193361
  C          -0.52155141688701      2.76280844615034      1.98935559383286
  C           0.31889978680148      3.24712152454080      0.85303145985916
  O           1.27947680205361      2.24189904953011      0.46150942449208
  O          -2.59745584805699      1.76145190976958      2.70302404322295
  H          -2.22360193432515      2.32281592478515      0.82514722020686
  H          -0.03021576043879      2.71792986367047      2.94772139302238
  H           0.93536992840916      4.09984114958886      1.14080322524058
  H          -0.30030235887998      3.51164644061405     -0.01111909590006
  C           2.00027011399297     -1.76694022559995      1.58350498823650
  H           2.38622594684541     -1.90078558987888      2.59221151518850
  H           2.80441632671629     -1.94140966597257      0.86127242830093
  H           1.19425634950124     -2.48638193046518      1.40219644064940
  C          -2.12795681879848      1.61015965021980      4.02336239401601
  H          -1.89724901193173      2.58034297346125      4.47390316258829
  H          -1.23584587244119      0.97732685006583      4.05360347886700
  H          -2.93479198177555      1.13384770016929      4.57733707322782
