18
Coordinates from ORCA-job NEB E -37.319539559690
  C           0.60616957101101     -0.37521823133043     -0.66264129786583
  C          -0.87197413608705     -0.11074137898805     -0.69812981660577
  O           0.88037617437606     -1.75272994217427     -0.66463649310454
  H           1.02837068085817      0.06769596219263     -1.58745097097300
  N          -1.60306598069566     -0.68173670383293     -1.71609132222450
  C           1.32977136890179      0.25772035135059      0.55620847249482
  C           0.44106776901855      1.08454613387669      1.40432500928131
  C          -0.97697374010335      1.30048235796420      1.18060519651122
  O          -1.56418503810963      0.75219737739153      0.05188348932444
  O           1.99660747449963     -0.70470175728207      1.33292594446861
  H           2.11145535297039      0.93934451577974      0.15493466613496
  H           0.88186250029014      1.52622017500471      2.28018011787667
  H          -1.22661561111531      2.37296860251696      1.16442821285874
  H          -1.53194614508033      0.89463086827262      2.04313996459044
  H           0.41534887294300     -2.11910422261052     -1.44466972807615
  O          -2.79974803333863     -0.43096289369267     -1.81091776122856
  O          -0.99076626176247     -1.45869505838055     -2.47676208079907
  H           1.87424518142371     -1.56191615605816      0.89266839733621
