18
Coordinates from ORCA-job NEB_product E -37.354995031600
  C           2.83559166416171      0.83830155228509     -0.13556564959048
  C           1.38114239153393      1.15091862219734     -0.33557269394999
  O           2.94651993551490     -0.41876145856232      0.44973742552635
  H           3.33917037217937      0.86369848409490     -1.11728138059570
  N           1.16055487276134      2.43280776073356     -1.18143853126421
  C           3.48146695899291      1.94408176022532      0.76253300082073
  C           2.55009628807712      2.28832751236525      1.89241406047297
  C           1.97670227780126      3.46896054102000      2.02956673207503
  O           0.41560432952094      0.59330287728708      0.04988036978593
  O           4.69320865595592      1.37563243927995      1.22018549660692
  H           3.68187740930856      2.82837656041882      0.14206157350290
  H           2.36726515387017      1.48326259196608      2.59078033313766
  H           2.15617773823120      4.27269883893257      1.33327823377133
  H           1.30035893340648      3.67905907376493      2.83910702488591
  H           3.80469414609640     -0.44329269533672      0.90036020799104
  O           0.02836839068095      2.82458500725887     -1.23855978137517
  O           2.13333066649309      2.93853243768587     -1.69139090950658
  H           5.07796981541373      1.95540809438341      1.88520448770537
