23
Coordinates from ORCA-job NEB E -44.595118640730
  C           0.27258673218271     -0.35006272748025      0.95001249005887
  C          -1.10880130513329     -0.08356892580355      0.99686583951729
  C           1.20712272597523      0.68644588476278      1.53782110497179
  H           0.58086908663279     -1.35651994290229      1.21366338393281
  C          -2.10954193138787     -1.19927174419536      0.95040886388884
  C           0.46734159812367     -0.25244053641466     -0.95483187225720
  C           0.03084884176088      1.04764627071656     -1.25732621823960
  C          -1.31279584643229      1.38228326447196     -0.92078671718444
  O          -1.49993957363803      1.11562173416418      0.65511547458209
  C           1.85424439471388     -0.65753970446425     -1.38502208890561
  H          -0.22081059957005     -1.06369979106899     -1.18251354845677
  H           0.75872565341081      1.83958368085312     -1.33420314854087
  H          -2.08210803902602      0.72241545670853     -1.31865318659318
  H          -1.58141846602159      2.42699391171174     -1.02094870865987
  F           2.45087532063285      0.15049021223484      1.74026789380838
  H           0.84202922516380      0.99388705046766      2.52488726451680
  H           1.32525220223774      1.57050054614590      0.90608562870645
  H          -2.49242020102342     -1.31121379143636     -0.06806509007013
  H          -2.95852852118050     -0.95719009598342      1.58639820096964
  H          -1.67198777567568     -2.13812172602547      1.27276480274165
  Cl          1.77331753700468     -1.00108365892613     -3.15076287354646
  Cl          3.08385940966950      0.58796098985921     -1.14902330196631
  Cl          2.39127953158018     -2.15311635739576     -0.59215419327418
