23
Coordinates from ORCA-job NEB_reactant E -44.624996950910
  C           1.75011425097483     -0.26004637968210     -0.22103622741736
  C           1.28873924259163     -0.70824635013251     -1.38755777610345
  C           2.03584740039877      1.17675409962118      0.08019690981744
  H           1.94822664933773     -0.96567398407325      0.56973719642483
  C           0.93276070949456     -2.14179907265270     -1.63589392235007
  C           2.94927774317539     -0.58202224877475     -5.13156382310610
  C           2.92565652815427     -0.39495615080681     -3.82162938321446
  C           2.11554593160758      0.67455824686388     -3.15020095443178
  O           1.00652512783233      0.12155986474863     -2.45542090278087
  C           3.70823551675577     -1.64364587795205     -5.84137096985530
  H           2.39587645991748      0.06485029351510     -5.79838795737281
  H           3.47750224562938     -1.04444535715554     -3.15631948297662
  H           1.67417814734457      1.35148177783369     -3.88455089321834
  H           2.77049851733563      1.23899829593697     -2.47638318447966
  F           3.37201719226367      1.48259661475709     -0.13725561811943
  H           1.84259607579990      1.40419861960865      1.13264329547215
  H           1.45562679032963      1.84562929189043     -0.56341323254371
  H           1.51970888699753     -2.53689106999253     -2.46420609898768
  H          -0.11566691029994     -2.20135370840968     -1.92303612769462
  H           1.10013717028065     -2.74705470433622     -0.75112908025752
  Cl          2.58124996208490     -2.59436616988094     -6.85520873624069
  Cl          4.91878233005875     -0.88568734188464     -6.92273525364316
  Cl          4.55446403193497     -2.76153868904188     -4.76447777692082
