23
Coordinates from ORCA-job NEB_product E -44.646760972050
  C           2.26795079192199     -0.80457417711060     -2.14962414031501
  C           0.90572722060919     -1.50935727998728     -2.12163302509833
  C           2.15840519194048      0.34486127616535     -1.13941008174208
  H           3.06297271707380     -1.47576048626764     -1.81727030773377
  C           0.88037469342883     -2.79375478908528     -1.34672782213258
  C           2.57649694381670     -0.27250483609967     -3.56504049565292
  C           3.62188802334978      0.80865072449578     -3.54823479471297
  C           3.38929467610197      2.04577044886584     -3.94135460512097
  O          -0.06203642745801     -1.00799660047129     -2.62966397502920
  C           3.03701332586862     -1.40232328477829     -4.48710017184663
  H           1.64286120222279      0.12624956864716     -3.98099099100274
  H           4.59144188954386      0.51484849658296     -3.17468786923325
  H           2.42572019213144      2.35600398059606     -4.31220470229674
  H           4.15526790926711      2.80021718559376     -3.90793240175304
  F           3.39883025052678      0.77896967203003     -0.75480862982412
  H           1.65258931835898      0.01276809964140     -0.22613088550169
  H           1.63035888157389      1.20125273531623     -1.56707369427617
  H           1.53036929626699     -3.52203036769854     -1.82658098561121
  H          -0.13150956649046     -3.18638343359393     -1.30009409804556
  H           1.25699759800238     -2.62246868364729     -0.34024577822110
  Cl          3.34832545137083     -0.75602969939485     -6.11577314604830
  Cl          4.53345187521637     -2.16347756266051     -3.90108337160621
  Cl          1.79930854535569     -2.67403098713941     -4.62973402719543
