18
Coordinates from ORCA-job NEB_reactant E -38.700061016630
  C           1.37985304075187     -0.06134012684396     -0.29476434930339
  C           2.09625036388755     -0.25782824044108      0.81488210751547
  C           1.99375060000685      0.50673380430941     -1.52926788884264
  H           0.33601548197318     -0.31126022526421     -0.30368886906432
  F           1.48787576498743     -0.78070048877087      1.89741986764495
  C           5.98687330961405      1.06709250903691      2.83792736228325
  C           5.44316495537513      0.12009899843813      2.08429858703913
  C           4.01839164713868     -0.30243905269599      2.20156820767422
  O           3.37220414260951      0.01493856748571      0.96042743653058
  O           7.26061097461232      1.49378681448515      2.77429636757101
  H           5.43988743676991      1.57801163857474      3.61795907940262
  H           6.01192025733647     -0.36440082904239      1.30335470569513
  H           3.52085332302718      0.22362218671933      3.02341887315855
  H           3.94208798379348     -1.38450551602240      2.37206201556808
  F           2.49302474402914      1.75615124863432     -1.32408058047759
  F           3.05059201797676     -0.23518652469834     -1.95994745671208
  H           1.27737381426546      0.57219798836815     -2.36169110609000
  H           7.72677014184499      1.04822724772739      2.05442564040704
