18
Coordinates from ORCA-job NEB_reactant E -34.279870749910
  C           1.65962360704919     -0.31281227391977      0.02706110399112
  C           1.39316987426835     -1.37291543275277      0.78783805771286
  O           2.04707448514726     -0.34956515182322     -1.29528471428283
  H           1.56665436078627      0.66508774915341      0.47497952437963
  C           0.95501968414528     -1.20753794459252      2.22299189397404
  C           4.38093056238545     -4.08853716900651     -0.53404823552828
  C           3.57939226828984     -3.03883564649367     -0.53640591272446
  C           2.08958513450840     -3.14645893304171     -0.67882280207061
  O           1.41195181219251     -2.71102048232863      0.48877539616533
  Cl          6.08701479721740     -3.95826329018657     -0.37250919041956
  H           4.03557974284251     -5.10456616556439     -0.64946019082074
  H           3.97081919909961     -2.04028584477001     -0.41309933729825
  H           1.78845683665697     -4.18976667510697     -0.79766792833436
  H           1.76376812014145     -2.56673595355261     -1.54824748345687
  H           2.26959755042990      0.54006494677316     -1.58336692679387
  F           0.72672148515324      0.10135570893346      2.54833403450409
  H           1.72686284901623     -1.58121538379121      2.90629188798580
  H           0.02317763067012     -1.75749205792948      2.39324082301697
