21
Coordinates from ORCA-job NEB_reactant E -50.593858404850
  C           2.13950952042463     -0.38614209448625     -0.29608160747454
  C           1.42127292192470     -1.23023188491694     -1.04727017365672
  C           2.44427067567503      1.02679805269765     -0.58155709901795
  H           2.54753097718540     -0.75015214697526      0.63881928316940
  C           1.14499509054990     -2.61651836351167     -0.50092157651114
  C           3.61623435592447     -2.36126694345402     -3.58686411622638
  C           2.31561528786689     -2.14779527348952     -3.76872597002896
  C           1.65549678693612     -0.86041235804846     -3.41405737879531
  O           0.83344103714388     -0.98646193821901     -2.22554376664296
  O           4.27995721502708     -3.48987928371257     -3.86538100114354
  H           4.28136241926531     -1.59945175307184     -3.20070417108431
  H           1.67384077526112     -2.92923201229132     -4.15235691373075
  H           0.93127178766762     -0.55489034568537     -4.17021778721201
  H           2.40188619078944     -0.07419633262946     -3.28112316577074
  Br          2.61973792899494      2.01076443157046      1.10801814125742
  Br          4.20330858324377      1.17999246767952     -1.52364020523776
  Br          1.09306604903209      1.93949957062147     -1.64496889806055
  Br          0.40565667853313     -2.55368177009193      1.30745904399550
  Br         -0.10020444229134     -3.55217624187826     -1.63118652182371
  Br          2.82658566013693     -3.64509203322464     -0.44046910177342
  H           3.67926450070889     -4.16907374688258     -4.20162701423159
