21
Coordinates from ORCA-job NEB_product E -50.591435857770
  C           2.46192036350377     -1.09481259886648     -1.13062809149103
  C           1.04669493238964     -1.62319638751806     -1.18815479753464
  C           2.38060341515776      0.38615510278723     -0.81051243733320
  H           3.02978334364414     -1.58279957527944     -0.32842645933109
  C           0.72650497318272     -2.87319642597687     -0.38678588742088
  C           3.24758752172189     -1.42974835528476     -2.43298054931842
  C           2.41997077430151     -1.45865716155811     -3.68696588117933
  C           2.57121025573240     -0.60189140026424     -4.67923802090579
  O           0.19415602132795     -1.13571504500136     -1.87421511484422
  O           3.82297133447316     -2.68828749694079     -2.16179854238311
  H           4.04318039233309     -0.67210040829154     -2.54117859344529
  H           1.71966511802775     -2.27899760937034     -3.76028157677773
  H           1.97914001891616     -0.67107059895548     -5.57399389721380
  H           3.27543528624361      0.21278904367107     -4.63168496062232
  Br          1.31229281165140      0.60248209738694      0.82605966126417
  Br          4.15721828386811      1.10457182770321     -0.45445122718817
  Br          1.56277884758319      1.45612835469127     -2.19807089460585
  Br          1.58056475054956     -3.00543540886213      1.34191204079574
  Br         -1.19311999787633     -3.00837726029746     -0.17221177953946
  Br          1.34550242552244     -4.33305983563549     -1.52514648991936
  H           4.21763912774609     -3.04858085813717     -2.96334650100622
