16
Coordinates from ORCA-job NEB E -36.829983488400
  C           1.09316364240969      0.53125830935483      0.15297488337845
  C           0.30703273943832      0.64167399676934      1.31070834096337
  N           0.81743954134502      1.49425294698542     -0.91306594874542
  H           2.16253266261679      0.37713289468559      0.26347878743080
  Br          1.15211116878727     -0.01337318301258      2.94737242781627
  C           0.35590961354401     -1.08768540275036     -0.63337190500484
  C          -1.01212509600498     -0.79866631599217     -0.66492953877001
  C          -1.68697705805412     -0.60534845698402      0.56083395396458
  O          -0.94131497927702      0.72781317171906      1.30278497948623
  Cl          1.20135443100997     -1.27246825385816     -2.14705134573487
  H           0.74387936456554     -1.76508907505050      0.12122639895323
  H          -1.43519747646251     -0.37662161342834     -1.56329250845970
  H          -1.50437644359189     -1.31766507537442      1.35958672306408
  H          -2.71116706947684     -0.26290884456993      0.50763504816309
  O           1.78960845943217      1.98802913603144     -1.42887116318301
  O          -0.33187350028144      1.73966576547481     -1.17601913332225
