16
Coordinates from ORCA-job NEB_product E -36.867230541810
  C           1.78337903167451     -1.47372878801280     -0.73527282858825
  C           1.02822082497320     -0.87457708038994      0.42014292315288
  N           1.67375161845861     -0.56142263965566     -1.92746448214176
  H           2.85090186710831     -1.55044463218533     -0.49494146217925
  Br          1.37821510193640     -1.87775641054880      2.06370765417513
  C           1.22196936852617     -2.87492156532835     -1.06117335814892
  C          -0.26619427365339     -2.90643918296923     -1.18301514348867
  C          -1.02181091125985     -3.69688795178495     -0.44218249744773
  O           0.30844002182451      0.05425773868362      0.44199783174194
  Cl          1.97596341325648     -3.41252434785170     -2.61829753599605
  H           1.56393958964450     -3.57913614712201     -0.29753955779438
  H          -0.69310472524842     -2.24609908148365     -1.92370191987859
  H          -0.60383661341395     -4.36141745628332      0.29684493511903
  H          -2.09215443174147     -3.70534656153797     -0.54621285353221
  O           2.71137377818378     -0.10677961349911     -2.32381475864338
  O           0.57964633973061     -0.35347628003081     -2.36767694634980
