16
Coordinates from ORCA-job NEB_reactant E -36.859662397590
  C           1.96332007547925     -0.09387324990487     -0.03405180521391
  C           1.23791712569156     -1.20624056543581      0.19804119359674
  N           2.22367643316567      0.41042103900689     -1.33336382914886
  H           2.39136630877072      0.48407887154600      0.76759853838871
  Br          0.98606946060097     -1.70357549934530      2.02927318839658
  C          -0.31249977155976     -4.97303866355336     -2.04943009185738
  C          -0.48274067114889     -3.69246075567502     -1.76258725866797
  C          -0.08189229539451     -3.09423314676896     -0.45159530617331
  O           0.71442219685651     -1.94878758436103     -0.73337986309806
  Cl         -0.79298333784181     -5.65939638075002     -3.53921159129915
  H           0.12001770269282     -5.68352846384263     -1.35997250724449
  H          -0.90436905937375     -3.00304964180657     -2.47752908952009
  H           0.48667248173717     -3.81243684782433      0.15120037664851
  H          -0.97353201282257     -2.78264650220430      0.11146935443312
  O           2.90616414988392      1.41405617964678     -1.38571869658508
  O           1.76149121326270     -0.16728878872746     -2.29464261265535
