20
Coordinates from ORCA-job NEB_product E -44.109055282680
  C           2.82982417896354     -0.86597120933097     -1.03884184765060
  C           1.44990093587138     -1.16852133115513     -0.50471088420340
  C           3.07199757356056      0.64586866405028     -0.95729026318169
  H           3.56382573987371     -1.34967951028586     -0.38143049534151
  Cl          1.18579104832158     -2.88937581653748     -0.24800999838804
  C           2.92552853949202     -1.52112679078355     -2.44075452673828
  C           1.81457359856456     -1.05046452375745     -3.34122622240077
  C           0.99580090127249     -1.87573595432936     -3.96576197931465
  O           0.59254353310102     -0.38968708966016     -0.25997346679506
  C           4.27520056011345     -1.36684733035777     -3.14322881955328
  H           2.80322630324967     -2.60057197714814     -2.27621371107520
  H           1.72045028617813      0.01833729483017     -3.46913143590704
  H           1.07028256714148     -2.94590146371766     -3.86199190240927
  H           0.21569333960631     -1.50997049356441     -4.60936957190155
  F           4.41513939940157      0.89411740283802     -0.89502979396916
  H           2.63185312427064      1.04274645320986     -0.03746124864290
  H           2.67581353345881      1.19540376952070     -1.81461028378094
  Br          4.30806068572662     -2.62112312584807     -4.65637363557983
  Br          4.60497621552610      0.39574009316596     -3.89048175630598
  Br          5.76621793630637     -1.85043706113897     -1.97670815686084
