20
Coordinates from ORCA-job NEB_reactant E -44.095486186280
  C           1.44935214441606     -0.59357564186017     -0.14650190244432
  C           2.45123436425356     -0.24299563177905     -0.94860935375853
  C           0.00901251293799     -0.43629746954195     -0.51656236546938
  H           1.65753573857944     -0.96715127421968      0.84161357486664
  Cl          4.09264635339099     -0.46557887248744     -0.42455181800997
  C           3.37277152372837     -2.03241202879061     -3.37010456398668
  C           3.92441266810298     -0.84487954174907     -3.56264075317216
  C           3.33509901235652      0.43699355255324     -3.06091927509636
  O           2.24741935556633      0.27212974816808     -2.17737923673470
  C           3.91962176298296     -3.33254969750725     -3.80672345476727
  H           2.43590932891486     -2.12678277581323     -2.83301430366574
  H           4.85360024304092     -0.72744080564957     -4.10233995791392
  H           2.92405426504148      1.00309761826006     -3.90392617353579
  H           4.12700770498782      1.03915014828842     -2.59735982059698
  F          -0.63340533111708      0.36291209746284      0.40243409473709
  H          -0.51352301660728     -1.40051884681111     -0.49401037086876
  H          -0.10453430450737      0.04217569629144     -1.49233176397070
  Br          4.24213312430128     -4.45888182456116     -2.21352877043771
  Br          2.59187633094738     -4.25609544225765     -4.93650087659645
  Br          5.57787621868279     -3.22769900799615     -4.80484290857831
