17
Coordinates from ORCA-job NEB E -37.326891120980
  C          -0.65292441960351      0.68563935259002      1.07716330825935
  C          -0.13571231925741      1.59337095994089      0.14071779229066
  Cl          0.32874699747158      0.26610237444970      2.43875082389581
  H          -1.71329536929255      0.72667435203067      1.29363262639836
  O          -1.05046236864563      2.21715792181356     -0.64209917826909
  C          -0.41076354553582     -0.93432619220582     -0.13721465528651
  C           0.95660268236450     -0.90374762784855     -0.38753671646804
  C           1.47112140392735      0.17578289748767     -1.13221058248512
  O           1.08678051545507      1.57489128704057     -0.21636237160925
  N          -0.93665026257019     -1.99026494545402      0.70031298380382
  H          -1.13726210677863     -0.61942290148464     -0.87804049555434
  H           1.59864938963241     -1.44768825723502      0.28966649146053
  H           0.94563935746512      0.45041056532938     -2.04081516330684
  H           2.54503692733742      0.27018527662897     -1.20608715894317
  H          -0.59704164478746      2.71359296483589     -1.33897783181906
  O          -0.17471830484376     -2.56910795288417      1.43499626963745
  O          -2.12374693233849     -2.20925007503510      0.60410385799544
