17
Coordinates from ORCA-job NEB_reactant E -37.357149174890
  C           0.85221095279310     -0.67295409654603      0.40950586999028
  C           1.95579113678137     -1.33325353042521      0.05223830259653
  Cl         -0.54234605006472     -0.65260051559690     -0.60229638340072
  H           0.77032529852075     -0.11539817656417      1.32484637605133
  O           3.07772334132261     -1.38123399102463      0.82052403627394
  C           2.35395310340710     -4.46736953907016      0.27110989379738
  C           3.28702006232309     -4.01142746181537     -0.55585514273441
  C           3.18782132534835     -2.76384772360839     -1.36434366776909
  O           2.02726354876482     -1.99976876695054     -1.11948253784067
  N           2.55530330601961     -5.67361047273023      1.01723955126690
  H           1.40000107735910     -3.99762924812592      0.45562018834735
  H           4.20730359993056     -4.57123747523879     -0.66755341485472
  H           3.13406437960180     -3.02537508177985     -2.42687690656172
  H           4.09166860460806     -2.16165544497502     -1.20295967645253
  H           2.95245387100446     -0.86883218940766      1.62626397204392
  O           3.58751445365631     -6.28772878640305      0.85373195540450
  O           1.66552798862364     -5.99637749973808      1.77398758384174
