17
Coordinates from ORCA-job NEB_product E -37.376389908150
  C           2.31431745174022     -2.10941985781765      0.76374832250842
  C           1.08667159629774     -2.26093074229281      1.68633951071954
  Cl          2.20277220915978     -0.61352878840422     -0.22275610060942
  H           3.20725092147113     -2.01581698406059      1.39532145173597
  O           0.53628557997045     -1.13641097781974      2.10379403810735
  C           2.46133867205613     -3.33624125974239     -0.13215071314072
  C           3.55206147924377     -3.16826830264286     -1.15140940230138
  C           3.38568808226325     -3.40310490983069     -2.43897923623066
  O           0.70155821785520     -3.34668379720600      2.00260788861756
  N           2.87011548325573     -4.50921104254186      0.72102164508494
  H           1.51433314965698     -3.60863649287974     -0.60646115774185
  H           4.50581729553954     -2.85273345713028     -0.75058403295935
  H           2.43992359171103     -3.72498326067312     -2.84199547364909
  H           4.19056185735829     -3.27745053985256     -3.14141507140276
  H           0.93104137264305     -0.35332931032646      1.67945645573540
  O           3.65382984967140     -4.28703620814222      1.60659289023079
  O           2.43673319010631     -5.57731406863681      0.39766898529524
