17
Coordinates from ORCA-job NEB E -41.646497217920
  C           0.74436854314972      0.74573860817713      0.73108553092425
  C          -0.57024615774766      0.23765744533870      0.88052467167778
  Cl          0.80761647975810      2.50519469265701      0.52651021970380
  H           1.47085933975483      0.45088649063204      1.48221549844214
  C          -0.81009555958300     -1.00993215221329      1.69150983787816
  C           1.31744385704593      0.12891274113074     -0.86944277002806
  C           0.19638722234625     -0.22159480983924     -1.65736848502693
  C          -0.92422865458888      0.67969917064807     -1.50836502448846
  O          -1.43018866266370      0.42254067558713     -0.08921753461178
  Br          2.61244570246846     -1.27137985425358     -0.57692467707852
  H           1.86024994991901      1.02267024100210     -1.16231098473092
  H          -0.03423682866576     -1.26982300303545     -1.78826297001398
  H          -1.79573875557510      0.44811515826917     -2.11321684930305
  H          -0.67177226354143      1.73950765018168     -1.55819658469952
  Cl         -0.39321541194609     -2.47818363599922      0.72949322623321
  Cl          0.15103888221913     -1.02140965278578      3.17169626099794
  Cl         -2.53068768234980     -1.10859976549722      2.11027063412393
