17
Coordinates from ORCA-job NEB_product E -41.691296793340
  C           2.63569678085666     -1.47543934099355     -1.31508546294026
  C           1.43024844955139     -2.35904739993104     -1.06342377886685
  Cl          2.05958339162103      0.15537805870266     -0.82268783639556
  H           3.46284212937766     -1.74147551937872     -0.65333062771670
  C           1.46846192847207     -3.10066284565207      0.28388246595510
  C           3.10210364506860     -1.41217788590565     -2.76405385580815
  C           2.09868284669880     -0.90439445667499     -3.73972438787063
  C           2.34555917387623      0.11606583327210     -4.54073221279106
  O           0.51143852230515     -2.49720853157910     -1.81117900138511
  Br          3.63464501328298     -3.25660631453067     -3.25624190822505
  H           4.02418324411035     -0.82789938475472     -2.81787671864242
  H           1.15675397205605     -1.43057678532689     -3.76847187611570
  H           1.60999675813256      0.46823709776139     -5.24182512656742
  H           3.28603969950140      0.64322793483250     -4.52470891190391
  Cl          2.71603088967521     -4.36435656747920      0.08025594839463
  Cl          1.92187507486089     -2.03270336941338      1.62105609147745
  Cl         -0.09144151944703     -3.84986052294868      0.61984719940163
