17
Coordinates from ORCA-job NEB_reactant E -41.683681716790
  C           1.75734939308858     -0.20592662133797     -0.13453697459732
  C           1.73763895194305     -1.45088315452618     -0.61234223838935
  Cl          2.17527334127722      1.23544602885288     -0.97863558410563
  H           1.49310706048234     -0.01671254275623      0.89162994289794
  C           1.34979619957944     -2.61796767998418      0.27101708349035
  C           3.61625915608571     -1.98764750402664     -4.87887348756512
  C           2.54166454842518     -1.99815217293677     -4.11142021888163
  C           2.38132962982323     -1.11078095908952     -2.91698349483819
  O           2.01568641577930     -1.95453798399443     -1.83169114709637
  Br          3.78856147811994     -3.08627736806217     -6.39977885935898
  H           4.46711896022767     -1.34366365050074     -4.72027796180285
  H           1.71772248195474     -2.66920556144838     -4.30444888311412
  H           1.58244820156147     -0.38290458384798     -3.10774901563396
  H           3.31250204898151     -0.57932136071562     -2.69631211096601
  Cl          2.70781265983957     -3.77147458726376      0.31273700445119
  Cl          0.94685896618345     -2.17840696309980      1.92672686544497
  Cl         -0.06182949335240     -3.42978333526251     -0.45076091993490
