21
Coordinates from ORCA-job NEB_reactant E -49.746906083290
  C           2.05478494024519     -0.09558709024386     -0.36673423584880
  C           1.45594879265965     -0.84651110088759     -1.30268222421242
  C           2.25347946685933      1.37435679809547     -0.34432116811144
  H           2.42897206447218     -0.59340075496053      0.51441341887337
  C           1.26935038257258     -2.33485683099950     -1.00930935084220
  C           3.95239666867499     -0.72837029107683     -3.94090285911797
  C           2.63749933059914     -0.78302912761896     -4.11602387073383
  C           1.68824319600187      0.17663759482356     -3.47654033307576
  O           0.91025548395554     -0.50662636216453     -2.47436513689755
  O           4.85268761859217     -1.58788676538148     -4.45030029613934
  H           4.43281282671981      0.05758811476640     -3.37497741379762
  H           2.18934337938718     -1.59308159580635     -4.67484202305179
  H           0.93459958579710      0.52522068158974     -4.18569312245216
  H           2.22454626360344      1.02797311275736     -3.05747097398703
  Cl          0.92104697161268      2.26766523669325     -1.10744204229087
  Cl          2.36505843955216      1.91828869833063      1.35009334426000
  Cl          3.79876860302912      1.84113082717637     -1.14380939859715
  F          -0.04080116685528     -2.65879860005124     -0.98626121377643
  F           1.82841875727968     -3.06966890478149     -2.00065165544634
  H           1.71689458395028     -2.65346428377068     -0.05653629080222
  H           4.40219381129119     -2.29737935648973     -4.92794315395246
