19
Coordinates from ORCA-job NEB E -40.283761214140
  C           0.88424093243672     -0.61691979750038      0.54334279440828
  C          -0.38330603847340     -0.56723643730269      1.13547437665252
  F           1.87917868704089      0.13154436797183      1.07527892092439
  H           1.28668307888355     -1.56516880951204      0.19464864974654
  C          -1.29317925710504     -1.76728052305144      0.96516268478103
  C           0.63019773369308      0.48736597747033     -1.12454039286077
  C           0.12397138282813      1.64240005399732     -0.48971188316252
  C          -1.13107302542445      1.64577404246531      0.09529847098823
  O          -0.90382826296896      0.51433758561649      1.52924978744648
  N           1.85612870080929      0.52599006618932     -1.73258184712481
  H          -0.07418355990055     -0.16997734832851     -1.62421566496948
  H           0.84338766840143      2.38811807139539     -0.18126631241796
  H          -1.92976017508419      1.07170234837302     -0.35436282653615
  H          -1.45518104445276      2.52066835570892      0.63499753131595
  Br         -0.74534024691697     -3.16747342979640      2.22642300622662
  Br         -3.11699332687975     -1.25504134684946      1.33505872157725
  Br         -1.23495736756742     -2.56777664167781     -0.83254034062541
  H           2.56063830078223      1.08448261309717     -1.27348533739381
  H           2.20337581989815     -0.33550914826638     -2.12223033897637
