19
Coordinates from ORCA-job NEB_product E -40.303965548920
  C           1.75530137983912      0.34910371406068     -1.84412275724164
  C           1.01831210888240     -0.76581636108559     -2.60987036477968
  F           0.89124409259098      1.00387483923351     -1.01657895811516
  H           2.57426976088730     -0.01888705345610     -1.21654225388053
  C           1.73866731478880     -2.11259167708781     -2.67880504478310
  C           2.20815006319593      1.22287590577911     -3.03035404219002
  C           3.60978523647673      1.72989365009299     -2.90748538767680
  C           3.91650496899764      3.00633185216432     -2.77298917053168
  O          -0.14419912877655     -0.72414853750233     -2.90647511469904
  N           2.02188554466659      0.27948680842240     -4.15485360012528
  H           1.50546508373392      2.05734085607786     -3.11231148875012
  H           4.37728027532660      0.96692565853858     -2.92281933870051
  H           3.16083668596042      3.77395659494616     -2.74834193719007
  H           4.93667608123710      3.33311051479565     -2.67413320072550
  Br          1.33770457279302     -2.96874019717766     -0.96253709814981
  Br          0.99616071238300     -3.15174448313758     -4.12267464621960
  Br          3.65512350095615     -2.04807809182577     -2.86998926180296
  H           2.89735575314588      0.04729150357957     -4.61402280770315
  H           1.36177599291497      0.61101450358203     -4.84809352673534
