19
Coordinates from ORCA-job NEB_reactant E -40.309269121500
  C           1.41640188184151      0.10867277288705     -0.19349562258243
  C           1.70793451425089     -0.55151076413730     -1.31460355541980
  F           1.72697844887834      1.40135012726279      0.01012735463738
  H           0.90934784176338     -0.31964698497228      0.65489462083867
  C           1.34625878455729     -1.98839729841720     -1.51160226218143
  C           2.63747115723040      1.88751033366994     -4.97553675648751
  C           3.31284359524306      1.36924261424229     -3.94877870811131
  C           2.72663207507131      1.23523546867434     -2.58714647187451
  O           2.32454952528169     -0.13863891063859     -2.43693962129059
  N           3.14693672781659      2.08949693639042     -6.23165233314439
  H           1.63600697021936      2.27253017557808     -4.83363720348264
  H           4.30637368322555      0.97118127914114     -4.08684367836382
  H           1.84895028506473      1.87904882151940     -2.47115892690364
  H           3.45999673251876      1.47444679609748     -1.80954834628230
  Br          0.47520343324229     -2.84635531368684     -0.02340310957671
  Br          0.16376233703282     -2.11208320385386     -3.06494294132413
  Br          2.97339919865461     -2.98622323166829     -1.92428644806274
  H           3.99245205605370      1.58683563903242     -6.45189093933783
  H           2.48820075205371      2.15720474287900     -6.98875505105029
