19
Coordinates from ORCA-job NEB E -29.425136783780
  C          -0.60949527571091     -0.06349281128569     -2.38656942974888
  C          -1.63777178526541     -0.16852538055592     -1.53395148190403
  Cl          1.06619596411558      0.04755247485813     -1.94980773101973
  H          -0.77768972287810     -0.06516001025711     -3.44824107084609
  N          -2.94099714017485     -0.29867275814743     -2.00540810056578
  C           1.57047902725656      0.45491888401256      1.50014559294701
  C           0.42603498108618     -0.07199736810544      1.09275755989230
  C          -0.71028888794731      0.70432437347162      0.49818019984871
  O          -1.64496600589735     -0.12309075473670     -0.18285236291810
  C           2.65179464844548     -0.35597468503515      2.13635341456631
  H           1.75391519896866      1.51655128659242      1.38802542537767
  H           0.24323160913640     -1.13235848994105      1.20346744835987
  H          -0.36105276575714      1.51271576478856     -0.14773276104641
  H          -1.29210022856385      1.15539675005885      1.31467633930877
  H          -3.52727920636330     -0.83283640962255     -1.38148320775704
  H          -3.02566789391284     -0.57272629238736     -2.97268011803424
  H           3.35542783763042      0.27426586479324      2.67656884301298
  H           3.21518141548658     -0.89257389498316      1.37008277796818
  H           2.24504823034525     -1.08831654351782      2.82846866255848
