19
Coordinates from ORCA-job NEB_reactant E -29.428579839120
  C           1.97760620850894      0.20422905333488     -0.01077892111718
  C           1.57295293506131      1.41517456154483      0.39529355044710
  Cl          2.26326242352536     -1.19492617430381      0.97293782129506
  H           2.17858243221546      0.02992893541550     -1.05314777514630
  N           1.42017681411941      2.43726947031202     -0.53809053590286
  C           4.01569902826632      2.17404435824396      3.75678243688638
  C           3.35606449789836      1.52372924450129      2.81341126774329
  C           1.86985586419328      1.34115378980197      2.79975330402731
  O           1.26053910150540      1.87991931580285      1.62907568188776
  C           5.49631743967057      2.34632243263872      3.78808748470502
  H           3.47689013210597      2.61269030549382      4.58758704516426
  H           3.88247001177252      1.08480254288964      1.97720788811153
  H           1.40451883366514      1.89988250892928      3.61582365940222
  H           1.61556313815319      0.28065027125723      2.90640724402810
  H           0.86677703664046      3.20075586250261     -0.17789353209299
  H           1.15385944246199      2.14672056271143     -1.46518127160329
  H           5.96114098880867      1.88565397820856      2.92050704803548
  H           5.90796977856851      1.89531529499762      4.69064118058917
  H           5.74995389285916      3.40588368571762      3.80507642353992
