24
Coordinates from ORCA-job NEB E -36.494953735420
  C           0.14534262327089     -0.51121987782231      0.41491263136303
  C          -0.72403476633568     -1.69654037503445      0.15719719481934
  C          -0.30293696339818      0.28700632991268      1.65230742321190
  H           1.18680874443585     -0.80222474544502      0.59331830591023
  C          -1.12579012488801     -2.71604346334893      1.15688379634639
  C           0.04916346475467      1.75967981594429     -0.82357144854010
  C           0.01337840411667      0.28525044020685     -0.92714892058047
  C          -1.32869162066576     -0.23006400899371     -1.47736800355421
  O          -1.56337433399526     -1.50220269916288     -0.91715686411419
  O           1.15665964546895      2.53092739516233     -1.03479650475174
  H          -0.85080056106592      2.34530958014136     -0.86746558914205
  H           0.82042560229451     -0.06905593632127     -1.57952548344270
  H          -1.32356243488221     -0.32432874903069     -2.56548305920018
  H          -2.15145084065829      0.43834063379377     -1.18893312650177
  F           0.68747084369586      1.15377724228895      2.05018113741267
  H          -0.48040848944564     -0.38434995804446      2.49752012578513
  H          -1.19128961809675      0.88939046780975      1.44756052308303
  H          -1.48492367124117     -3.60449197486293      0.64111065715649
  H          -1.93699123458403     -2.36911862790311      1.80957804217016
  H          -0.27503321283239     -2.98334172074381      1.77942461120406
  C           2.41610207084923      1.97075421160955     -0.75691949402498
  H           3.13612422257656      2.78020832902125     -0.86673287713758
  H           2.67070471624369      1.16960227571545     -1.45945533781767
  H           2.45710753438242      1.58273541510737      0.26456226034521
