24
Coordinates from ORCA-job NEB_reactant E -36.567099269560
  C           1.89627046466934      0.05607074051566     -0.19543123533484
  C           1.49938962459267     -0.63730017174553     -1.26570308107076
  C           2.00491624691947      1.52286923966691      0.06323043376297
  H           2.26477898126935     -0.53678943303872      0.62961986517130
  C           1.51100930542107     -2.14405476855497     -1.23577268715101
  C           2.58620479316998      3.00332972889204     -3.01831124359131
  C           2.38857192378434      1.69084093205078     -2.99911108222058
  C           1.01870659581082      1.07741072909129     -2.94561913569994
  O           1.01074895921895     -0.25466946743754     -2.47202424385601
  O           3.75156623136592      3.67853387911399     -3.08320819560946
  H           1.75755236706695      3.70079093910700     -2.99581727057876
  H           3.20268957846379      0.98480253812102     -3.03224968328219
  H           0.61435643377248      0.97498546106413     -3.96177919072656
  H           0.31775810590483      1.69986096073729     -2.37307562791897
  F           3.33390996274668      1.92714613782652     -0.01787799746348
  H           1.69560675864606      1.74899005109510      1.09046792148314
  H           1.45798111646919      2.15560428619035     -0.63365561626494
  H           2.20363465322481     -2.51713334059407     -1.98787818825944
  H           0.52011438956484     -2.51640993331114     -1.48666273557577
  H           1.80273563958366     -2.51982265548686     -0.26172028488719
  C           4.94083872057786      2.92364086573513     -3.01491748849216
  H           5.75534438321366      3.64513360793008     -3.02665931323467
  H           5.03359332256121      2.25261166051828     -3.87474619157806
  H           4.97682144198208      2.34165801251326     -2.08999772762132
