24
Coordinates from ORCA-job NEB_product E -36.575786441410
  C           2.46172080206067      0.84688203782178     -1.07613096306766
  C           1.31440180878095     -0.16027274206505     -1.05318427894345
  C           2.59579629389460      1.45698620381125      0.32056565472149
  H           3.39943530732232      0.34251573835959     -1.32512943963371
  C           1.74453711281404     -1.59452619164706     -0.94837263442873
  C           2.15345826613817      1.96258085853230     -2.10587078713815
  C           2.04703676204541      1.34460615913610     -3.47422229923130
  C           0.98837008450371      1.46955188032260     -4.25062219046892
  O           0.16393503921434      0.19265893820968     -1.07661048571026
  O           3.06766376280112      3.04110631500634     -2.02340814944219
  H           1.19249317626113      2.41398188914003     -1.83552738943369
  H           2.90069442032092      0.76129873761812     -3.79510279930241
  H           0.93497662201717      1.00112003255658     -5.21891818774659
  H           0.12757254720514      2.03799705041880     -3.94244541890954
  F           3.11396946264400      0.52893654701414      1.19193868125658
  H           1.62135735027796      1.76343395291047      0.71179122363553
  H           3.28358796059504      2.30746151795103      0.30740715841822
  H           2.32991264801894     -1.86709235465330     -1.82443790892370
  H           0.87863876274275     -2.24612077113001     -0.87097008651819
  H           2.37578022125390     -1.71160847463225     -0.06880576725563
  C           4.35093644091525      2.83452840002801     -2.56974753410306
  H           4.92238672876852      3.72590175168910     -2.31600398026361
  H           4.31457971386815      2.73367973163857     -3.65916068812097
  H           4.85025870553579      1.95939279196318     -2.14173172939008
