15
Coordinates from ORCA-job NEB_reactant E -30.205754272380
  C           0.98209026694263     -0.46500897073626      0.45515039764191
  C           2.02927223008916     -1.27653206097960      0.28589246847300
  Cl         -0.41322600420553     -0.58887025559597     -0.55023130004063
  H           0.95095931820525      0.31184367316684      1.19732481069697
  O           3.14330026868813     -1.21689462864648      1.06451700401379
  C           1.95027356006808     -4.28105164009586      1.22871466272370
  C           3.00365041351908     -4.15472907903157      0.44716942259983
  C           3.09820965042124     -3.15202024787107     -0.66658342690933
  O           2.04546370317012     -2.20803046819353     -0.68587486333184
  I           1.84837111682592     -5.67830117555558      2.79349082148971
  H           1.05954016472824     -3.68416625948423      1.13181588655107
  H           3.87888071549385     -4.77637245797278      0.56518189284508
  H           3.02724809329737     -3.66479270373462     -1.63161811767999
  H           4.06888450628927     -2.64394138108439     -0.60996707958263
  H           3.05708199646718     -0.51293234418488      1.71601742050935
