19
Coordinates from ORCA-job NEB_reactant E -42.224230199620
  C           1.70065381753159      0.03253916607412     -0.02505552911914
  C           1.04021722570189      0.01829149391196      1.15012771503881
  C           2.03390825962677     -1.20814758691771     -0.74536331362500
  H           2.00777814067967      0.96163301872721     -0.47128324967318
  O           0.72107547072894      1.13976200906547      1.82852862647359
  C           0.13434585267151     -3.06565602221106      4.42145906542608
  C          -0.35870691711333     -2.48076945832227      3.33779860634401
  C          -0.04796173260060     -1.07478635555636      2.94949888957601
  O           0.66336311002711     -1.12317785537040      1.70655186829434
  O          -0.10494776608068     -4.33004745382491      4.81636026739933
  H           0.77411723482254     -2.54914310077555      5.12305760375838
  H          -0.98554437496620     -3.02878680876108      2.64826050148882
  H           0.56961151989832     -0.58348489026189      3.70816513630874
  H          -0.96635865478344     -0.49133375201652      2.80803824302465
  Cl          0.56698899388878     -2.15219158761605     -1.16295291254275
  Cl          2.89055087800108     -0.84236736793544     -2.24784840210441
  Cl          3.07459492481934     -2.29387849144659      0.23591078722233
  H           1.03231187124777      1.92055989805555      1.35596972711237
  H          -0.65569785410106     -4.78351485481850      4.16447636959704
