14
Coordinates from ORCA-job NEB E -26.553222615090
  C           1.01055143808229      1.07229944956452      0.14045377341899
  C           0.76246138798536      0.28016576008594      1.24289982679120
  H           1.79265955713624      0.72870386053692     -0.52038071595367
  H           0.93892389336697      2.14424217369032      0.24404918046839
  Br         -0.17254020653034      1.12817203497728      2.74785369822583
  C          -0.49427670364699      0.52431028960549     -1.09181950086199
  C          -1.09199841634190     -0.57566778291288     -0.49551786181306
  C          -0.22952474258639     -1.61217361826671     -0.05427691480814
  O           0.65542031726090     -0.98189416056651      1.19616466294572
  F          -1.23440832204893      1.63406709373612     -1.24666521195035
  H           0.17767540308465      0.40824495196377     -1.93602749774839
  H          -1.99863892411729     -0.39353093555722      0.06689239791391
  H           0.57108818205470     -1.89629373647227     -0.73117095339773
  H          -0.68739286369925     -2.46064538038476      0.43754511676927
