14
Coordinates from ORCA-job NEB_product E -26.609279103250
  C           1.02259139314852     -0.52539107475376     -1.28617364914370
  C           1.74907865137025     -1.48300236171620     -0.41559671922124
  H           1.74796844259653      0.18211791292584     -1.70318228267120
  H           0.31707948724352      0.05879237027088     -0.68869975144101
  Br          2.49462319920704     -0.57292987280560      1.16876570109651
  C           0.29009189065438     -1.24134919133708     -2.43283475363547
  C          -0.92644527485184     -1.96546722370164     -1.93986625193382
  C          -0.99112348433798     -3.27495942108944     -1.79937565553501
  O           1.93635236028353     -2.63951611693638     -0.54777507690541
  F          -0.08353744485031     -0.27328794339454     -3.34604676975481
  H           0.97359078378932     -1.91833328976675     -2.95986401728977
  H          -1.76109486646776     -1.32332083570213     -1.69456320896122
  H          -0.15891822755915     -3.91337966052543     -2.04433199901008
  H          -1.87405691022604     -3.75807329146777     -1.41915556559377
