21
Coordinates from ORCA-job NEB E -48.755250419080
  C           0.51505130335512      0.05706057321037      0.85127185405718
  C          -0.82503160228516     -0.51107720947695      1.07417716685562
  C           0.60144215964998      1.37731720512133      1.43009131992322
  H           1.32844614759213     -0.56834480109184      1.22977140840293
  C          -1.00232489473330     -1.88632733411437      1.46108625135699
  C           0.68019768384070      0.18855054047208     -0.77883708699714
  C          -0.44884204441199      0.96343201376003     -1.25528450661889
  C          -1.74524687206568      0.45609136035573     -0.97205385038751
  O          -1.84691947357178      0.10700107527820      0.57685869927116
  C           2.04492537745273      0.77910823378375     -1.12588806657791
  H           0.66533453916487     -0.85628061660993     -1.11023456507931
  H          -0.30869928121178      2.01568972090675     -1.44761746308518
  H          -1.95589019625783     -0.53965155891065     -1.36873111376352
  H          -2.57071475007222      1.14006145609517     -1.13638446691731
  N           0.62996509150652      2.40137059089445      1.93185188093423
  Br          0.24433697974045     -2.62111404092555      2.69257397538293
  Br         -2.79844567787950     -2.33110221307978      1.89823446621906
  Br         -0.62791625955235     -3.08402985503323     -0.50077470805196
  F           2.13102320099970      2.08584240915391     -0.80365776924497
  F           3.02515186112937      0.14363549008395     -0.44500355608765
  H           2.26415670761003      0.68276696012658     -2.20144986959196
