21
Coordinates from ORCA-job NEB_product E -48.787298788090
  C           2.89801154690101     -0.39565679682748     -1.59440843887179
  C           1.59115944253365     -1.06140837779177     -1.20765988401724
  C           3.00816681085795      0.77848577541675     -0.74823023663287
  H           3.76285393543915     -1.04247051156370     -1.40253064858252
  C           1.73277293561850     -2.40576181837403     -0.50439843804526
  C           2.85754452011150     -0.03154248695310     -3.10259752890342
  C           1.82405629921030      1.01476977536295     -3.40495012626502
  C           0.83708145517987      0.83318961472566     -4.26085505625444
  O           0.50861924080320     -0.61430082654744     -1.43829389569489
  C           4.24505015818970      0.44407635248615     -3.55099851366423
  H           2.64692267398554     -0.94719560377921     -3.66806820824027
  H           1.94212149188448      1.94571078875932     -2.86803945753696
  H           0.70539348161318     -0.09378812376094     -4.79504367475696
  H           0.11305379406533      1.60432994344405     -4.45303604220595
  N           3.06357503678007      1.68637697613584     -0.06050427009179
  Br          2.91725481790465     -2.27650280137447      1.03713387932963
  Br         -0.00139820758348     -3.05311395436650      0.03976169332769
  Br          2.49782719473513     -3.62641215360431     -1.83447246153698
  F           4.65551863808428      1.52557900696901     -2.85827067525968
  F           5.16779316606370     -0.52395997201346     -3.32888017291901
  H           4.26602156762228      0.69539519365670     -4.62215784317802
