22
Coordinates from ORCA-job NEB E -44.381490462700
  C           0.65335789118717      1.15314649855377     -0.12087413468995
  C          -0.38411778610779      0.93445432428155      0.81414029289586
  C           0.33195092982479      1.86492127016658     -1.30045673320151
  H           1.62426335626517      1.38761129507805      0.30335181903766
  O           0.00916958750029      0.83720022481057      2.09879671521569
  C           0.74023080280774     -0.74852516618930     -0.82120333215285
  C          -0.56788486503577     -0.94238702300974     -1.26213196974297
  C          -1.59902070602656     -0.93588013561010     -0.29954156737908
  O          -1.55914356715022      0.59661854708631      0.45514512997498
  C           1.87921635358356     -0.89369394932529     -1.78005470311806
  H           1.00951567716199     -1.16662904027698      0.14822472967487
  H          -0.81791862407496     -0.68281863646642     -2.28060880789318
  H          -1.45371439448783     -1.53871423181700      0.59023414291282
  H          -2.61587236779441     -0.94697372375165     -0.66526617224299
  N           0.07030597512328      2.43471370156280     -2.25826306395827
  C          -0.98230609451601      0.51294075736268      3.06126751082800
  H          -0.58015018911060      0.82443282485966      4.02225753216143
  H          -1.17279222308698     -0.56287025164851      3.07246877083777
  H          -1.91377541651677      1.04051022360453      2.84799166550770
  Br          2.24406192258096     -2.84054900021027     -1.91675386970983
  Br          1.55472020679511     -0.24941825504189     -3.57851649171213
  Br          3.52990353107785     -0.07809025401933     -1.13020746324599
