22
Coordinates from ORCA-job NEB_reactant E -44.418838826420
  C           1.65039540923618     -0.69104479279988     -0.52358050530054
  C           1.56441311501001     -1.25871314227633      0.70027205678281
  C           1.55853720586260     -1.31331023068655     -1.76487157290336
  H           1.78355280235634      0.38023152447749     -0.55026730280712
  O           1.64080576751664     -0.44376071822984      1.76193870101730
  C           3.13536941059767     -4.08321838009819     -1.71592744179795
  C           2.84882651505948     -3.76413910860347     -0.46473124622771
  C           1.45358275363650     -3.56099368333047      0.04154296608204
  O           1.39597171363252     -2.55408723464629      1.03384164342247
  C           4.48746917481960     -4.30590682570359     -2.26569953124254
  H           2.35054460621332     -4.18362446432327     -2.45583783641822
  H           3.62133352559364     -3.64032992270431      0.28351303763894
  H           1.12513158804738     -4.46606060079525      0.56612879008472
  H           0.75714306144424     -3.35124658448608     -0.77561673671634
  N           1.49498271737537     -1.78022874901404     -2.81503436779725
  C           1.56131500751485     -1.01457127756881      3.05636276807802
  H           1.65169341205657     -0.17737605431292      3.74462423093869
  H           2.37357180582013     -1.72517954985412      3.22472278695771
  H           0.60489279331396     -1.52022780254657      3.20527579690840
  Br          4.82569180719899     -3.02656230358843     -3.72235305347655
  Br          5.92429069463705     -4.12942829783095     -0.97766091922800
  Br          4.58918511305697     -6.12652180107814     -3.01324226399553
