22
Coordinates from ORCA-job NEB_product E -60.364004617850
  C           2.29020369182857     -1.64914217754838      0.77522526157198
  C           1.34614459407742     -0.62888672463383      1.39839537331260
  C           2.22389749996426     -1.54861701386929     -0.75572563956924
  H           3.33229670298795     -1.45206955299892      1.05702296590645
  C           2.00506687514576      0.26241634069898      2.46567883718106
  C           1.90921438892901     -3.06004374091986      1.27820484469116
  C           0.68593956667873     -3.63582634579641      0.63325346191061
  C          -0.49803102584861     -3.63491278043180      1.21571084802058
  O           0.19270372555345     -0.52916349812147      1.12107793740695
  N           3.09229073640831     -3.98840339975061      1.09207720519381
  H           1.77018083249642     -3.00058385071767      2.36538168797354
  H           0.82429622124369     -4.05203529491341     -0.35389864973426
  H          -0.65401060702342     -3.22664455219242      2.20051515731907
  H          -1.36303305708751     -4.03563203567129      0.71958787017487
  F           2.88569291360384     -2.55889130772691     -1.33337969830492
  F           0.99060259376557     -1.56313334614899     -1.25516681119735
  F           2.79982395561315     -0.41591415605721     -1.17246036854782
  Cl          2.71373216114960     -0.78644975515233      3.71973587280877
  Cl          3.29359783247506      1.20977449354037      1.67772704321967
  Cl          0.81480923593999      1.33911954647302      3.19283003069951
  O           4.18630959792910     -3.50426604298036      1.20929621338300
  O           2.83487156416965     -5.14029480508121      0.88971055657998
