20
Coordinates from ORCA-job NEB E -43.307037374670
  C           0.54352322726120      0.69602235620258      0.46095426136523
  C          -0.72767058270497      0.16717576021769      0.75870400735236
  C           0.53002817682686      2.02920778538096     -0.26347355186382
  H           1.26313498587378      0.70268356912344      1.27689533773643
  C          -0.96463878976487     -0.62558485186731      2.00202885201639
  C           1.24134434299671     -0.48856912031456     -0.84920963702971
  C           0.20338172624732     -1.32274406898333     -1.27689351085011
  C          -1.03654052268901     -0.65938146866421     -1.56807772956270
  O          -1.57474064775585     -0.06974736121259     -0.20717856696896
  I           3.00662682677564     -1.41850037672939     -0.09235754398952
  H           1.54304245961876      0.30274297006023     -1.52219620118275
  H           0.15787822283714     -2.34549397564732     -0.93130149315470
  H          -1.85623045237410     -1.30112622906104     -1.87543775905676
  H          -0.95846964664120      0.22156631792488     -2.20473667624946
  F           1.76485158950964      2.34795730353694     -0.75502964686149
  H           0.26589640384293      2.81901590700055      0.45018581624543
  H          -0.17127265945685      2.04430940384751     -1.10346906657514
  Br         -0.26049171412471      0.26024413759528      3.57472154307447
  Br         -2.86655226044168     -0.91687525651501      2.22817649288049
  Br         -0.10310068583674     -2.44290280189528      1.89769507267431
