20
Coordinates from ORCA-job NEB_reactant E -43.343281160340
  C           2.23291070714724     -0.47256328391911     -0.05219906647640
  C           1.45413902620159     -1.55111588885195     -0.13428609287386
  C           2.37204424267436      0.55010763198345     -1.13514959136501
  H           2.82264863111421     -0.31561818152437      0.83887552217286
  C           1.33770303041376     -2.48862664479862      1.04659104898148
  C           3.54136167046945     -3.26641276226672     -2.28586863696742
  C           2.23133850570541     -3.41863221806735     -2.22240761846331
  C           1.29205773202770     -2.26486747575783     -2.41167912641946
  O           0.66075300405626     -1.90543520057048     -1.17358806704162
  I           4.89524909681851     -4.83836078918018     -1.98516346251167
  H           4.01686586339887     -2.32576990246622     -2.51275937435412
  H           1.77766428030496     -4.36919481325608     -1.97938725603384
  H           0.45399174503089     -2.54764620218714     -3.05237750450275
  H           1.81850090085647     -1.41283492308937     -2.84790144281066
  F           3.38553054525487      0.20350033511635     -2.00810141900227
  H           2.64376451598088      1.52182826664412     -0.71496665110276
  H           1.45711380417075      0.63532133180079     -1.73071922731271
  Br          0.80973395964762     -1.52666363614272      2.66377098108269
  Br          0.03229081385531     -3.86495944445468      0.70679523541574
  Br          3.06773792487089     -3.35225619901189      1.39392174958508
