20
Coordinates from ORCA-job NEB_product E -43.352984844870
  C           2.58321561135454     -1.65834555396934     -0.50666621461036
  C           1.40017027940079     -2.24539694216980      0.22415484144776
  C           2.20390363939971     -0.26521942081204     -1.03618025627194
  H           3.44890534767889     -1.55625630931029      0.15474484871117
  C           1.53234829337430     -2.44980367477157      1.73025036377313
  C           2.96326987842809     -2.56115707982755     -1.69309553589304
  C           1.97227302977707     -2.57877875898012     -2.79998769061388
  C           2.29924173016967     -2.32049701956335     -4.05395655101673
  O           0.34269136612815     -2.47451241326560     -0.28972146972733
  I           3.21739577538054     -4.61441168586823     -0.96059096016593
  H           3.94661569410015     -2.26476331179199     -2.06050321100898
  H           0.95765308855229     -2.83531492409830     -2.52727584568149
  H           1.56675671240581     -2.34299691089822     -4.84142786833684
  H           3.30789773773868     -2.07039336066849     -4.34009494464289
  F           3.24473251368631      0.24026901314114     -1.76218708287115
  H           2.01471855619559      0.43649754022288     -0.21734338608958
  H           1.33651162657643     -0.32031890971549     -1.70126009863993
  Br          1.16399616437195     -0.63160359411458      2.40527658935825
  Br          0.15562646687476     -3.65281351042774      2.34811333325982
  Br          3.24707648840627     -3.00818317311131      2.40805113901992
