24
Coordinates from ORCA-job NEB_product E -47.316614193030
  C           3.10924726808895     -0.49524263275385      1.65054564575648
  C           2.17720416677061      0.50786638810182      2.32151446320959
  C           2.36952291301637     -1.10402906032138      0.45648967650733
  H           3.98807829133839      0.04553193479088      1.28471396092191
  O           2.80759562866841      1.65540106344129      2.54452920473858
  C           3.56420386062694     -1.62877623963054      2.59602237822298
  C           2.40117918295744     -2.45118599872631      3.08297681548040
  C           2.39365483433905     -3.77094539871962      3.06131113931812
  O           1.02257602846954      0.29638993599175      2.58025258310261
  C           4.36943300992923     -1.13530403287254      3.79351205363835
  H           4.23830188600199     -2.27252465793824      2.01273197021739
  H           1.55736596915817     -1.89201528520376      3.46322628516924
  H           1.55234591366651     -4.33202354055508      3.42822813039758
  H           3.22208350426910     -4.34432848922335      2.67738029990132
  F           3.18894998785319     -1.97952124849077     -0.20501239808952
  H           2.08263328876639     -0.32901587159044     -0.26023367842201
  H           1.48752607512427     -1.66281357116828      0.78244202692107
  C           2.05223367399219      2.68742022553867      3.16966452201926
  H           2.70074662935871      3.55831687490817      3.19978099478137
  H           1.76929280167076      2.38394874698407      4.17968577780660
  H           1.14867490952067      2.89327012301581      2.59400241202828
  Br          5.17689458135258     -2.66866868617975      4.70238360093947
  Br          5.83459761649040      0.04984467486238      3.27201548985248
  Br          3.29435797857012     -0.19949525426091      5.11553664558110
