24
Coordinates from ORCA-job NEB_reactant E -47.277788222180
  C           2.81389431556662     -0.41137002344338      0.40083247977526
  C           2.29316904623735      0.18248191024254      1.48010903694106
  C           2.27011494152554     -1.64738791856139     -0.22702211831712
  H           3.70398104681815      0.02319969335841     -0.02113254269303
  O           2.87890879181228      1.31142250598568      1.94236664673916
  C           3.65177650449475     -1.87196561527074      3.49826818335789
  C           2.46748419169577     -1.37909549960204      3.82706273624975
  C           1.29865329852650     -1.45415722437479      2.89153841268658
  O           1.17799304133420     -0.23238182252939      2.15456271839854
  C           4.89996878679986     -1.73771545223606      4.27657795236113
  H           3.78078186120701     -2.43260602258854      2.57963628375155
  H           2.31944053137786     -0.81520675282213      4.73835910342893
  H           0.35737967840218     -1.53507705724840      3.43838186486502
  H           1.40750404409565     -2.30813430937613      2.21797497835666
  F           2.82737871290225     -2.79110474478386      0.34262779535519
  H           2.52241331140205     -1.69404111959465     -1.28882615490037
  H           1.18824596543676     -1.73899885628315     -0.08919357261911
  C           2.21128783111611      2.04721040953571      2.95167444211360
  H           2.78236458846778      2.96636876085842      3.06134318535821
  H           2.20279016577079      1.50849361659988      3.90279169893992
  H           1.18452416732157      2.27612525283609      2.65915089584075
  Br          6.26760754966008     -0.88234829032455      3.14360563212635
  Br          4.73678093426340     -0.68241696781888      5.89575898781613
  Br          5.55905669376545     -3.52459447255866      4.78905135406794
