23
Coordinates from ORCA-job NEB E -53.587458485050
  C           0.61920740377617     -0.40602072616851      0.66419230945101
  C          -0.48289952188507     -1.27469839406008      0.58274483654132
  C           0.70393764421194      0.52033473922209      1.86679894010967
  H           1.59587622868535     -0.84733772685155      0.47654416806402
  C          -0.32151848850479     -2.59694199716432     -0.14243874238647
  C           0.27538354843724      0.68218436478214     -0.87410892327950
  C          -1.01921365290550      1.14905090507532     -0.63482574558919
  C          -2.07161010033863      0.17952319596622     -0.51235042363541
  O          -1.69622525931813     -0.78597358723836      0.67529222034436
  C           1.38714114955103      1.69729186895603     -1.04854745290949
  H           0.40394019694298     -0.11997881200228     -1.59515703627773
  H          -1.14902309147650      2.11642411605731     -0.17408137402635
  H          -2.16133843416998     -0.51300163367106     -1.34836632728065
  H          -3.03301090381608      0.57752274508973     -0.20754625233064
  F           1.84555369194573      1.23568451252627      1.86004603620323
  F          -0.30979830986936      1.40194740275455      1.96657436839389
  H           0.70652574012067     -0.08368802890270      2.79146386901611
  F          -0.11809833297541     -2.41384843256015     -1.48554471685336
  F           0.76795833361337     -3.26080951279090      0.30156297938794
  H          -1.20422775893570     -3.24158730696583     -0.02751913285446
  F           1.26861148159775      2.75627363875899     -0.22550435239326
  F           2.60121271442146      1.14338703692810     -0.82568159659556
  H           1.39161572089146      2.08426163225899     -2.08354765109948
