23
Coordinates from ORCA-job NEB_product E -53.622479341100
  C           2.70734758216586      1.04733021444509     -1.25768909654019
  C           1.74553251989084     -0.10774899065111     -1.09262328491660
  C           2.86573178998771      1.78130318159845      0.08689982547050
  H           3.70019390135341      0.63658379474768     -1.49012394887150
  C           1.76431176128559     -1.16186416283573     -2.22984306958113
  C           2.27876477433928      1.89389449961880     -2.49306088914823
  C           0.91569220232564      2.52184281374985     -2.36773914174526
  C          -0.10056486382996      2.19715626466466     -3.14369126244833
  O           1.00984290661277     -0.26005108509720     -0.16099683935435
  C           3.31785342250132      2.97645614167420     -2.81860806229945
  H           2.28609241258458      1.22146730245481     -3.35819267406012
  H           0.81478857747545      3.28530090881497     -1.61226371705792
  H          -0.02720757139613      1.44097404435154     -3.90765059321034
  H          -1.05831421378982      2.67435538657874     -3.03433657005503
  F           4.09787228719880      2.32469525846770      0.17974570930366
  F           1.98391587402291      2.77890469281873      0.27780283327154
  H           2.74901746187891      1.07617688099114      0.92698609113187
  F           0.86253084939212     -0.84116748316510     -3.18474910671583
  F           2.96790352196843     -1.21421856214342     -2.84118639632376
  H           1.51563191724071     -2.16181063670746     -1.84380528249446
  F           3.39437592231940      3.93101284108194     -1.87427679638129
  F           4.55436716619585      2.43199426650109     -2.92693483428522
  H           3.08211979827632      3.47151242804063     -3.77446289368859
