25
Coordinates from ORCA-job NEB_product E -49.118794597120
  C           2.94497030924614      0.57417847628553     -1.06182250470806
  C           2.04752866086756     -0.67260464483511     -1.07865064399981
  O           2.37408012315957      1.63438130208542     -0.35255671767204
  H           3.91493572683419      0.28077529445120     -0.62094812890942
  O           2.63757677284987     -1.66049259487618     -1.75569347797340
  C           3.16485906284775      1.01998174595195     -2.52333196861791
  C           1.85656174795473      1.38376721528264     -3.16846178712455
  C           1.40065114329117      0.80442546666412     -4.26141242789122
  O           0.97220686710969     -0.75970986465715     -0.55778007987790
  C           4.11717483873962      2.21271607726489     -2.57482630723665
  H           3.65572351132333      0.20688294969038     -3.06786260421885
  H           1.30256938934686      2.15351761508729     -2.65228757809277
  H           1.95414781584697      0.03343586347548     -4.77291355086813
  H           0.45485158505521      1.08230550543965     -4.69181102584611
  C           2.39196007140028      1.48230824699981      1.04974228498163
  H           3.41653545213454      1.33766397546915      1.41317282181309
  H           1.76832069125000      0.64407388652471      1.37010838089166
  H           1.99042059765915      2.40991992622959      1.45047601425190
  C           1.89468310636498     -2.87182066161653     -1.86566153430706
  H           2.51680637298582     -3.55648318216035     -2.43538378881740
  H           0.95047922199377     -2.68664704365151     -2.38044683103280
  H           1.68339697615848     -3.27678223575021     -0.87462395118166
  F           3.60157306075524      3.35377586591475     -2.12394261940412
  F           5.24177482692005      1.99013445521463     -1.87127137188788
  F           4.51391206790501      2.44789635951584     -3.83831060227054
