19
Coordinates from ORCA-job NEB E -34.728823992020
  C           1.07009715073582      0.70069634210557     -0.38627945036984
  C           0.08773628795611      1.57392612504883      0.10891530024480
  O           1.01594144840840      0.05246859242390     -1.56034757532860
  H           2.10246623022527      0.95123213955406     -0.15265408453239
  F           0.59710078081184      2.40069356929312      1.10304780075495
  C           0.65729608460107     -0.70529320478509      1.09391893066018
  C          -0.72239566243795     -0.88992986997651      1.00904699550743
  C          -1.57002527176709      0.16810503742092      1.36787774869826
  O          -1.14588183019553      1.37460487387175      0.14945178491724
  C           1.52174323062043     -1.75104869528304      0.68134852858297
  H           1.05692742900517     -0.08814872804292      1.89287992355991
  H          -1.10030048608792     -1.68225675917569      0.37757517670623
  H          -1.31065807753745      0.77068741617391      2.22947485725660
  H          -2.63128252402514      0.06363650746723      1.20017691861223
  C          -0.22907920830487     -0.05844606948409     -2.22513334720030
  H           0.00124304442841     -0.48755371531512     -3.19819902593729
  H          -0.69482348595531      0.92260943920588     -2.34625462970083
  H          -0.91581630007186     -0.71484063721177     -1.68810424867423
  N           2.20971115959059     -2.60114236329096      0.34325839624267
