19
Coordinates from ORCA-job NEB_product E -34.761713064380
  C           2.33814568151152     -1.39946223901569      1.06167992037289
  C           1.65290142381068     -0.08695104010110      1.38760896206669
  O           2.30865467026643     -1.75689438372852     -0.28953921049263
  H           3.40730814371320     -1.23517039313918      1.28339780589176
  F           1.91622895971072      0.85041676261831      0.44666526223467
  C           1.82382570133843     -2.50318221667049      2.04244225927260
  C           0.46208097313228     -3.04273189499534      1.68722569647766
  C          -0.64081293659515     -2.69113585237002      2.32140431295974
  O           0.99421481297744      0.19439775020327      2.32504435387376
  C           2.77511610882924     -3.59229225000319      2.06242110032892
  H           1.79130583664992     -2.05110244890516      3.04126418834199
  H           0.44587007903991     -3.76444471443935      0.88150149215588
  H          -0.63062622997887     -1.97871005060961      3.12966584465281
  H          -1.60019544339749     -3.09434347766215      2.04641633199381
  C           1.10408061465273     -1.53173384224976     -1.00440439610934
  H           1.11672629301515     -2.23628762804342     -1.83439945127493
  H           1.07039250521641     -0.51352791659539     -1.40332708838461
  H           0.21996655228410     -1.70925188314190     -0.38791494930660
  N           3.51551625382336     -4.46159228115131      2.07814756494491
