24
Coordinates from ORCA-job P E -27.677961999040
  C          -1.49177231184784      0.44956294949582     -2.35998308278566
  C          -0.11911893572311     -1.59415447353327     -1.13277729878159
  C          -1.47506132279025     -1.88238081075233     -1.68737691614819
  C          -2.12770883717861     -0.90716974197616     -2.30015000131771
  C          -1.00925985311495      0.80190760017867     -0.94321187028104
  C          -0.12038607227122     -0.28251838264449     -0.30417326447215
  H          -1.87887820253301     -2.87784996026730     -1.58293390695878
  H          -3.10847763458434     -1.04139772208558     -2.72916566548897
  C          -2.44521601825045      1.51273239564900     -2.89343515640914
  H           0.24497284801605     -2.41738394340144     -0.51548599051153
  H          -0.61660167949587      0.39747493698374     -3.02151533755109
  H           0.57441649279337     -1.46804902125394     -1.97001649610664
  H          -1.89329984455562      0.94791612787021     -0.32052483266083
  H          -0.53657926749665     -0.52235553847556      0.68140179482480
  H          -0.46164101876284      1.74422025331398     -0.95362275012495
  N           1.20874682597720      0.24638345699691     -0.02861691362976
  H          -2.76831680076682      1.26266064046819     -3.90180798381874
  H          -1.95947435857527      2.48599161850271     -2.91949100309085
  H          -3.32497934362451      1.58633760347815     -2.25729997763569
  C           2.04808446974112      0.56586136658635     -1.16559141158365
  H           1.70690980206688     -0.39115623581672      0.58415187692879
  H           1.50505427050881      1.21903481486268     -1.84578505028758
  H           2.40191552343994     -0.30748919825210     -1.73299260827595
  H           2.92166126902801      1.10463126407248     -0.79822615383308
