24
Coordinates from ORCA-job R E -27.599601234150
  C          -1.39014280168029     -0.23276132746728     -2.81269654287682
  C           0.29403742353949     -2.68910384028351     -2.20745376361804
  C          -1.01918207185581     -2.56400318423966     -2.03523276410767
  C          -1.81503856978195     -1.37156384419417     -2.26600178400290
  C          -0.67366250614082      2.31773588793733      0.15775888828443
  C          -0.54391755960280      0.99499157795482      0.19904876557517
  H          -1.57561512022383     -3.41699585666934     -1.66632656065803
  H          -2.84916384451701     -1.43949757249354     -1.95093300203888
  C          -2.22946562254884      0.98534321813671     -2.97299347183331
  H           0.80109949135576     -3.61593907772473     -2.00107726450455
  H          -0.36699199943924     -0.14197099948793     -3.15142225300788
  H           0.91143804746832     -1.88566898221573     -2.57215809227474
  H          -1.56570829987126      2.78690134914860      0.52932191860616
  H          -1.35060599261945      0.38222554780741      0.58021194164249
  H           0.09250607176789      2.97341823173739     -0.21416672034404
  N           0.56832999482450      0.25931898635381     -0.14319053195062
  H          -3.28023651427900      0.76343007045873     -2.80238836394101
  H          -2.10823979671598      1.41246710774764     -3.96692244378821
  H          -1.91396197726241      1.73371276744714     -2.24242100372702
  C           1.67228689083424      0.88932241884669     -0.82233679000621
  H           0.36258408361594     -0.67667468595855     -0.46003557757399
  H           2.06294939850018      1.69204181335838     -0.19617968013587
  H           1.39251387999561      1.31725018590276     -1.79395700253272
  H           2.46132739463677      0.15489020789702     -0.97389790118573
