24
Coordinates from ORCA-job TS E -27.579808622020
  C          -1.05758804938199      0.19639618593378     -1.06519564760237
  C           0.40125679354327     -2.03008334995491      0.02351430460319
  C          -0.93565079669839     -2.06667410342725     -0.18349955401105
  C          -1.65695659558695     -0.99950950318467     -0.75300629145944
  C          -0.39312255361086      0.85540165632828      0.84889895748777
  C           0.47783443327261     -0.02125668768679      1.44543296195384
  H          -1.50823787137114     -2.87750030275797      0.24923355689590
  H          -2.73654129570676     -1.03829672309489     -0.69505853986341
  C          -1.87804829975488      1.33855741600931     -1.58984312591239
  H           0.89456973659524     -2.81805701845270      0.57064670858723
  H          -0.03646660310579      0.18894880320743     -1.41589909715662
  H           1.04525357639667     -1.38543698379633     -0.54454595681983
  H          -1.39691480809108      0.90072860503109      1.23086404427293
  H           0.11142867875309     -0.74019580695705      2.16091236170897
  H          -0.01551897549324      1.77031362570606      0.42837052750595
  N           1.85305617346719      0.12464242537165      1.47531299009038
  H          -2.07417949911551      1.19163226168181     -2.65333445602718
  H          -1.35925529249135      2.28783236894208     -1.47711706245088
  H          -2.83444693279544      1.39962580477494     -1.07549659747273
  C           2.54473042026108      0.94199388392326      0.50926947845746
  H           2.34915308095700     -0.72208200037985      1.71219081761923
  H           2.15545860990187      1.95882720120854      0.55041882091941
  H           2.44836084258037      0.57532315912224     -0.52060577545973
  H           3.60182522747498      0.96886908245194      0.76853657413337
