21
Coordinates from ORCA-job NEB_reactant E -41.659516420660
  C           1.48110850987012      0.28024683771740     -0.00429997596224
  C           1.18552135968463     -1.01638718507263     -0.17206291007981
  O           1.35392155577633      1.18934841184363     -0.99454868469412
  H           1.84911250836288      0.63471908751107      0.95125130626288
  C           1.30050755475843     -1.95358348276901      1.00046241716892
  C          -0.46296119759009     -3.92419766017402     -3.48026002753498
  C          -0.49268413832053     -2.74348188001585     -2.88788824741796
  C          -0.13382368116488     -2.54250046945045     -1.45000181973773
  O           0.83479068584014     -1.50015005802896     -1.40088297129558
  Cl         -0.90000618301000     -4.14802853061335     -5.12408351208435
  H          -0.18423986730154     -4.83869789940995     -2.97895731864781
  H          -0.76225702752181     -1.84823796313207     -3.42720509323677
  H           0.26099635367842     -3.47103914416413     -1.02128346911152
  H          -1.03105715532170     -2.24396480192729     -0.88813251640136
  C           1.88447027309168      2.46670829887766     -0.72333983924813
  H           1.62557699336080      3.09039542806704     -1.57648848834919
  H           2.97363249481283      2.43012763471675     -0.61870117416541
  H           1.45037158082870      2.89522457610737      0.18602208891014
  F           0.07964568500869     -2.37018226878331      1.44955423482958
  F           1.97359989173607     -3.08760197307459      0.68480228739663
  H           1.81287380342084     -1.48411695822532      1.85244371339881
