21
Coordinates from ORCA-job NEB_product E -41.660904223670
  C           0.78690386845180     -0.44827406289389     -1.29309756169383
  C           1.67576019858770     -1.16216212174566     -0.27518244600043
  O           1.55015628791590      0.32877273062800     -2.17215385485166
  H           0.03420323943307      0.16526455691312     -0.77322882780493
  C           1.05746077868855     -1.46150755150315      1.11381010312407
  C           0.08760177228047     -1.53367372392512     -2.13680160363610
  C          -0.67096160117760     -2.52756130143715     -1.32533078574448
  C          -0.44570649286376     -3.82743981111595     -1.37595059843646
  O           2.80555361682625     -1.49129385154025     -0.49339002442216
  Cl         -1.05800775263564     -0.70414066651102     -3.23815684497797
  H           0.84124344961788     -2.00673750286520     -2.77083762521513
  H          -1.45066768314910     -2.11641721628065     -0.69952156603500
  H           0.32363249600143     -4.24719356864971     -2.00265434268264
  H          -1.01376219323356     -4.52021865665199     -0.78113979588342
  C           2.05826680974012      1.51505308925890     -1.60809777648065
  H           2.54949809713400      2.04351563866527     -2.42166459188656
  H           2.78714435702618      1.30792165241883     -0.81712174274618
  H           1.25109875251616      2.13622333343725     -1.20178296220735
  F          -0.16418518005013     -0.90832114031980      1.27787620547314
  F           0.90901732757290     -2.79349764424215      1.27747441607412
  H           1.71474985131738     -1.09101218163970      1.91825222603364
