23
Coordinates from ORCA-job NEB E -57.823033890640
  C           0.58541881378420      0.71643006086663      0.35137973391075
  C          -0.50284595291518      0.64221275805497      1.24234060075100
  C           0.55427715394578      1.83909746236997     -0.67015778548018
  H           1.57527012867388      0.67325502630511      0.80179776206028
  C          -0.24473452937897      0.02088559570013      2.60681100364057
  C           0.37744937422326     -0.90462766962509     -0.64159149501155
  C          -0.95231268467099     -0.80568492480437     -1.06834327971703
  C          -1.99689165971376     -0.71471198913071     -0.09050686411201
  O          -1.71973248901212      0.57420707269984      0.77796532481616
  C           1.46480105561868     -1.02564701681662     -1.68742474381738
  H           0.58819244314770     -1.55776365068675      0.20056486970710
  H          -1.14641393677919     -0.44178953225141     -2.06651567015961
  H          -2.00398469321910     -1.49862439107169      0.66547787006266
  H          -2.98715938696322     -0.52079376556356     -0.48733198130830
  F           1.65330069830416      1.84437894932748     -1.43370219210703
  F          -0.49669571916108      1.84804528538950     -1.48229617294704
  F           0.55253293378097      3.02054001490354     -0.02768547732372
  F          -1.24215897601901      0.22341803589552      3.46014323593814
  F          -0.08320256524171     -1.32849345151276      2.52329387607427
  F           0.88056664831875      0.48196377397510      3.16672162868677
  F           1.11493564861723     -0.41280010330823     -2.85659801463282
  H           1.61657213058545     -2.08664909997914     -1.92309009331330
  H           2.41281556407430     -0.58684844073742     -1.36125213571773
