23
Coordinates from ORCA-job NEB_reactant E -57.853329863640
  C           1.83885869734721     -0.04197083454242     -0.04653968288601
  C           1.61266307241168     -1.28614782019109      0.39347243083161
  C           1.49482980950888      0.58168249997364     -1.35865183458799
  H           2.31012189751419      0.65777804972708      0.62564059765721
  C           2.03289949862651     -1.62050382626624      1.82932768791147
  C           2.11185714265537     -4.16744107794342     -2.87473300537917
  C           2.01707458967259     -3.02038904413258     -2.22405428457893
  C           0.78268861855016     -2.58052010124068     -1.49785913850331
  O           1.05886636795638     -2.38172834444709     -0.10728472784597
  C           3.33210096780722     -4.62332729373777     -3.60523865653970
  H           1.28234764065424     -4.85856437478628     -2.92949848526762
  H           2.86166221602007     -2.34787059140088     -2.18348720349513
  H           0.03031568804815     -3.37259825719242     -1.50350599863916
  H           0.35229144168319     -1.68579286312551     -1.95081830300146
  F           2.10367972814588      0.02125010397200     -2.41909403711816
  F           0.17378848661843      0.54894950792929     -1.63604371371846
  F           1.84304118285369      1.87106629627930     -1.36560174953584
  F           0.99296481266283     -2.04838512212942      2.54881315276553
  F           2.94956992858043     -2.59251654754938      1.84247664190588
  F           2.55803181067182     -0.58257508137092      2.48447555196155
  F           4.36660971909297     -3.73454595033062     -3.49027212870862
  H           3.12533998630630     -4.73604226040648     -4.67717635009990
  H           3.68769669661180     -5.58080706708811     -3.20384676312780
