22
Coordinates from ORCA-job NEB_reactant E -49.974603224530
  C           1.36376082751646     -0.49125026019567      0.20335362570705
  C           2.14964226796666     -0.98526650319429      1.19504426417669
  C           1.86695120518901     -0.18360212268985     -1.12305645807400
  H           0.32365384120937     -0.28300794788677      0.38030137363211
  N           3.47226191160508     -1.25322779480494      1.06508751835274
  C          -0.75733256968020     -1.51202198722904      4.92584344165448
  C           0.12147475708405     -1.94764928551077      4.03780123448838
  C           0.31751594726766     -1.32398710259653      2.69434532972044
  O           1.70532857789745     -1.33166718217733      2.42299977962269
  C          -1.02060959973659     -2.10533503379976      6.25449585905547
  H          -1.38390419926773     -0.65333820675807      4.71433254930003
  H           0.76124279749597     -2.79713749891751      4.23248273175415
  H          -0.07705362644274     -0.30029442183599      2.67359280989428
  H          -0.21382632456635     -1.92480405756341      1.94038440063029
  Br          0.45983757768550      0.43041102634421     -2.30291344373523
  Br          3.28721061062037      1.29318595925837     -1.10722597029236
  Br          2.76162625758574     -1.73027446748866     -2.01149805658172
  H           3.94178598762741     -1.54365751478900      1.90689321488030
  H           4.02499451553873     -0.73958567290121      0.39852724880867
  Br         -0.75560157493052     -0.72964547612615      7.64284229122536
  Br         -2.90658304445937     -2.69241744951886      6.33681792579640
  Br          0.09362385679403     -3.62572699961877      6.70464832998378
