22
Coordinates from ORCA-job NEB_product E -49.976250807180
  C           1.44982732350491     -0.54653767763535      2.10807065401700
  C           2.90475834696026     -0.76653299738490      2.61567094685371
  C           1.32476833238260     -0.95210439860018      0.64187432345512
  H           1.39226245628223      0.55192343820375      2.06492336071110
  N           3.42341276992956     -1.99906588144691      2.49281955708434
  C           0.31775742575408     -0.94727149999611      3.11875920151034
  C          -0.95569436394212     -1.39666810957337      2.44877365324755
  C          -2.07201851434761     -0.69173021742143      2.47791608691710
  O           3.51065498675423      0.17137249104598      3.06917442097879
  C           0.63101049895973     -1.94894927093913      4.23987434838074
  H           0.09026103793848     -0.02043887794682      3.66436691088683
  H          -0.93919012920595     -2.37052995152593      1.98029267657229
  H          -2.13056405547130      0.27392755127879      2.95239961237795
  H          -2.97046882674784     -1.05179104228813      2.01007751779897
  Br         -0.16682366354691     -0.02757144946008     -0.24843584222003
  Br          2.94790284584214     -0.33655942735476     -0.30531338959287
  Br          1.14361513265831     -2.85040240447791      0.23399708616098
  H           4.37970477540446     -2.11790392957959      2.78853701274199
  H           2.96558496793281     -2.78479755692815      2.06256829516604
  Br         -0.96525491376478     -2.06145981095609      5.39571771252471
  Br          0.98189875239064     -3.77201196685249      3.65311841440399
  Br          2.08189481433206     -1.39139701016119      5.43361744002336
