21
Coordinates from ORCA-job NEB_reactant E -41.748618853870
  C           1.97633668369522     -0.35083048572828     -0.02115926240445
  C           1.38094030960087     -1.54440207098432      0.11163957810014
  C           2.22087830667348      0.43640351855190     -1.26390519530363
  H           2.32867238326922      0.09944668158984      0.89684462697357
  C           1.22136842287602     -2.05958134781216      1.43111578401886
  C           3.94694111447512     -2.39562677705304     -2.63619902886524
  C           2.99600085337589     -2.84701698159084     -1.83396062522048
  C           1.53812086411457     -2.58087390598148     -2.04803671041765
  O           0.84191397069592     -2.38424724662447     -0.83503973400482
  C           5.40533530651598     -2.60685884559419     -2.45553176966707
  H           3.70840770646871     -1.80626826787475     -3.51153478507553
  H           3.23205918726517     -3.43690388263249     -0.95913899303307
  H           1.06658142767843     -3.47324068235411     -2.47815585195394
  H           1.39185601750690     -1.74739470867017     -2.74400056632188
  H           1.42430825570856      0.30115535910235     -1.99076693024228
  H           3.16883772694443      0.14830764270724     -1.72150471263092
  H           2.28187423891185      1.49294153656116     -1.01449978798807
  N           1.10155379640946     -2.47015511033572      2.49392291830037
  Cl          6.09909954966375     -3.32582717176629     -3.93780962570875
  Cl          6.17998778091529     -1.00817022690254     -2.20191358381319
  Cl          5.81812609723513     -3.64255702660765     -1.08376574474197
