21
Coordinates from ORCA-job NEB_product E -41.757637225680
  C           2.88626837939072     -0.86457983214072     -0.72387925881932
  C           2.26429497777777     -1.69145600701738      0.39720855180002
  C           1.78910725579399      0.03504654944147     -1.29977896455306
  H           3.68939981928574     -0.24463573456068     -0.31314839102091
  C           2.90961520130476     -1.45000233450765      1.67863295381319
  C           3.48377788405377     -1.75233202775090     -1.84177523132155
  C           2.47773001447471     -2.71162402408356     -2.41510519475604
  C           2.01848334282843     -2.62094350963691     -3.64851227163110
  O           1.29757702911764     -2.39691886859831      0.27678560679399
  C           4.71334069928060     -2.51399544846710     -1.34446113920578
  H           3.83074261358500     -1.08378739853888     -2.63818875115778
  H           2.12846354089236     -3.48682687607136     -1.74989247989700
  H           1.28992977186238     -3.31456555008293     -4.02944975326782
  H           2.35093813687202     -1.85340607552969     -4.32849502962650
  H           0.97162110362125     -0.57152309414235     -1.68165454289241
  H           2.18848046206994      0.64180387724683     -2.10820942761581
  H           1.40290939422645      0.69753946944776     -0.52837562953470
  N           3.42048561997802     -1.21413869795850      2.67529188452011
  Cl          5.35299955261243     -3.53867816326810     -2.64960936570544
  Cl          6.00505988894322     -1.39104261283801     -0.84476602182141
  Cl          4.32027531202882     -3.55593364094303      0.04708245589932
