16
Coordinates from ORCA-job NEB_reactant E -36.113652022200
  C           1.53467414495359      0.15357255017790     -0.15096342010982
  C           1.51352350846705      0.49083976973630      1.13121060943846
  Br          0.87354500375470     -1.51970402976125     -0.72176820493603
  H           1.93244456805284      0.78018447731967     -0.92822969506136
  I           2.26988263083687      2.42473144923296      1.65988218421412
  C          -0.85906105381011     -1.08111136859390      4.98155743390931
  C           0.17744710580918     -0.92988796668890      4.16783247999365
  C           0.29671435237201      0.13143152697621      3.13383925154299
  O           1.15716894890575     -0.33694180655099      2.11161412010118
  N          -0.87326248502954     -2.11964545867092      5.97519885732109
  H          -1.75089604644618     -0.47307770583773      4.98252849493412
  H           1.01767004675379     -1.60967848427218      4.24611383988222
  H           0.73199765359235      1.03405328384484      3.59654601627383
  H          -0.68380186789880      0.40053983727121      2.71878723705841
  O           0.10035968563991     -2.83048946913395      6.07559175414805
  O          -1.87640619595342     -2.20401660504925      6.64735904128976
