16
Coordinates from ORCA-job NEB_product E -36.126098462240
  C           1.42632212572615     -0.71386756889623      2.43056610777070
  C           1.34771028761723      0.57904150354580      1.66605086459383
  Br          0.98823105490523     -2.17641162505811      1.19738447382916
  H           2.45939920358884     -0.90373178742582      2.74836022911138
  I           2.76570421879953      0.69519969260036      0.05624831180932
  C           0.50222445612926     -0.69768148540042      3.65088097695237
  C          -0.95273234822036     -0.86257555563148      3.33489990235231
  C          -1.83272358653994      0.11338440194306      3.45107510190904
  O           0.61630332944909      1.47968323806393      1.89401949645691
  N           0.95117847257235     -1.76993733478622      4.61376680428159
  H           0.66573711243820      0.25368772312376      4.17677085552881
  H          -1.24653543172181     -1.84667319160169      2.99868890243440
  H          -1.55603199559957      1.09963294479317      3.78534083329681
  H          -2.86741039489472     -0.03622779200148      3.19995682442977
  O           0.09586186554443     -2.36065745704416      5.20989794490719
  O           2.14136163020609     -1.92026570622446      4.72919237033641
