20
Coordinates from ORCA-job NEB E -51.748858012010
  C           0.24176001486090     -1.28842832752704      0.10274917118569
  C          -1.12710372105100     -0.97230488233022      0.13937833912682
  I           0.91325153459226     -2.46917879360121      1.75814006034143
  H           0.61443860406519     -1.72203680878359     -0.81799866966239
  C          -1.89814428909830     -0.84767059290670     -1.17952115732402
  C           1.11917756940188      0.40234578942039      0.36718706520360
  C           0.11131107504599      1.32941569330359      0.69285223151438
  C          -0.76167761462161      0.94933156946846      1.74172442466321
  O          -1.62727134572077     -0.31403978555391      1.12294779211171
  C           1.99582307139673      0.67839421039398     -0.82134829730408
  H           1.72942765406838      0.09229813798213      1.21336117754373
  H          -0.29610519403793      1.95186125641146     -0.09575728437942
  H          -1.56553433028871      1.63033111772942      1.99051053826688
  H          -0.30717309017549      0.49042037837555      2.61556446652081
  F          -3.12202763805657     -1.36832640021076     -1.07602270138661
  F          -2.05081508480004      0.43908896681568     -1.53770761403734
  F          -1.28652575837031     -1.47186155258262     -2.19264721916288
  Br          3.04460872182741      2.30420291915831     -0.44399855432843
  Br          3.27482909607625     -0.77330733904896     -1.10579518373068
  Br          0.99775072488574      0.95946444348604     -2.47361858516239
