22
Coordinates from ORCA-job NEB_product E -36.845115234620
  C           2.40888725049787      0.19449475480929      1.06376725210971
  C           1.82405405164140      1.18061837431313      0.07102891785366
  Br          0.99120146509045     -0.89325958395270      1.78635427570556
  H           3.10892094382517     -0.48308354218602      0.57112022452644
  O           2.81497675832672      1.73452503696258     -0.63215378579804
  C           3.13710149871612      0.94718769365916      2.18800309757627
  C           2.19944953929649      1.91366696629437      2.86111578701370
  C           2.27164164588117      3.22233776303836      2.71678363555227
  O           0.66250796168847      1.43942882956735     -0.04940269396143
  O           3.63943656862241     -0.03870954575845      3.06118245696804
  H           3.97338241750303      1.50396636352348      1.72463302403183
  H           1.43363433168435      1.45197835543728      3.46900038187292
  H           3.03572955280678      3.68738963575521      2.11339364624328
  H           1.56731367811763      3.88382725198004      3.19008684808860
  C           2.46667940503163      2.72129456157325     -1.60053282162279
  H           2.80910930034903      2.37524124495582     -2.57528870622166
  H           2.97219048362925      3.64988507423299     -1.33663454879559
  H           1.38568890497482      2.86809970258482     -1.60892539819951
  C           4.45701235346374      0.47157073988854      4.08390803408532
  H           4.78106315477143     -0.38771156259201      4.66642360428503
  H           3.91046968601566      1.16833605377242      4.72818170633946
  H           5.33164904806636      0.98631583214106      3.66705506234691
