17
Coordinates from ORCA-job NEB E -31.416919371740
  C           0.59460601124039      1.22670609698722     -0.47798672054258
  C          -0.17923843431342      1.27590647603287      0.68141363772124
  O           0.00455947868114      1.31116219096689     -1.68862185814460
  H           1.61352126565830      1.58641136236192     -0.47595734574612
  O           0.47080678824227      1.44300913306732      1.86961574424418
  C           0.81885078556822     -0.89090999096143     -0.23505068986322
  C          -0.51061425931291     -1.27951201469546     -0.33653530271739
  C          -1.39107096301071     -0.92768110639129      0.70469826210899
  O          -1.37827911843049      0.81955750665935      0.66902447338146
  C           1.72079774623209     -1.15730138666306     -1.29188573266379
  H           1.28962229154397     -0.81846720640754      0.73983532461689
  H          -0.91114004259341     -1.49726479178310     -1.31664660864617
  H          -1.04176742323682     -1.05425827293238      1.72313338742460
  H          -2.44525635270018     -1.12479732879117      0.57694898191826
  H          -0.94216109588894      1.12026572969097     -1.58826580652594
  H          -0.16700144449751      1.34683321768390      2.58982020582381
  N           2.45376476681802     -1.37965961482501     -2.14353995238962
