17
Coordinates from ORCA-job NEB_reactant E -31.437163547500
  C           1.49121164600225     -0.48055144342227     -0.18307087787534
  C           1.62254303267564     -0.68419244343971      1.12604193709995
  O           1.12331157966597     -1.44551497895090     -1.10913777680349
  H           1.65781060144148      0.52152718044129     -0.54405924615718
  O           1.94387510414468      0.36964839656993      1.92502841746250
  C           2.56466047197170     -4.20913025277170     -0.61803624566762
  C           2.55865978235507     -3.47878004115541      0.49488187596935
  C           1.31208560706887     -3.05495854534407      1.20330091876786
  O           1.46504858120486     -1.82022770612063      1.87326323959999
  C           3.75559868297889     -4.60472119855682     -1.25447576799379
  H           1.64690963939802     -4.52902199015671     -1.09338079249711
  H           3.48697087247138     -3.15460121408638      0.94724826354269
  H           1.08888184782093     -3.76793437667449      2.00698418404611
  H           0.46439649208696     -3.01928831702060      0.51201994239942
  H           1.39194389682476     -1.14366084124648     -1.98157395003291
  H           1.95048127186008      0.04767190306179      2.83586884348017
  N           4.72001089002845     -4.93126413112684     -1.78250296534060
