16
Coordinates from ORCA-job R E -25.637021677940
  C          -1.16771725124296     -0.02028622077076     -2.98442485850437
  C          -0.02738627199219     -2.61396385188529     -1.96189871051360
  C          -1.25608047166992     -2.15576753115822     -1.74217179580670
  C          -1.81074171400512     -0.91080042368875     -2.23806015213289
  C          -0.94929862972849      1.75715961107070      0.18236860090700
  C          -0.27750491739964      0.63232715235152      0.30208338960727
  H          -1.93638150175416     -2.73757156031873     -1.13354659309254
  H          -2.83527714765076     -0.69568583056211     -1.96651180305960
  F          -1.77119541841406      1.11531226574095     -3.37602430121766
  H           0.30188309236159     -3.54860719695642     -1.54249367288713
  H          -0.15173410396493     -0.07475189231976     -3.34364417235793
  H           0.69602877728350     -2.07475958230679     -2.54702391410406
  H          -1.91602256651323      1.87277286178506      0.64185073926004
  H          -0.62489902559423     -0.23920846420380      0.83250642362048
  H          -0.56432451953868      2.60058982028844     -0.36476196733861
  Br          1.42579166982328      0.37663084293398     -0.48089721237968
