23
Coordinates from ORCA-job NEB E -44.408338089070
  C          -0.65200245073396     -0.05526133105765     -0.18843655928493
  C          -0.05852818014350     -1.32376849232596     -0.08767613227070
  C          -0.52926947751132      0.69714486796582     -1.50088422026906
  H          -1.64718222871224      0.02134999415741      0.23922688833542
  C          -0.71126563730186     -2.35824506338987      0.81953362915376
  C           0.49382410548411      0.99696710386966      1.01567526414803
  C           1.58850631506073      0.20412420013313      1.37119968051224
  C           2.27915390800558     -0.42544464350051      0.31213170463115
  O           1.18052343900463     -1.50288118065377     -0.37171621486956
  Cl         -0.54070952223440      1.57323530048793      2.28994229638057
  H           0.65978458157418      1.77102021374744      0.27847951892054
  H           1.57406615426172     -0.29066217191876      2.33244995606894
  H           3.08444171386747     -1.09883649016590      0.57392333662385
  H           2.49476956637600      0.17613580862063     -0.56436114605572
  C          -1.30074562071092      2.01107463924034     -1.50774526171765
  H          -0.95604046196548      0.04808708665898     -2.27091810099229
  H           0.51714818835127      0.85631451013398     -1.76417469312730
  H          -2.35433207820258      1.82772914953253     -1.31222138174411
  H          -1.21141267617057      2.48654539911857     -2.48131732151144
  H          -0.93566621594803      2.70608589263740     -0.75604696166536
  Cl         -0.79242046228838     -1.78786234133702      2.51753330613214
  Cl         -2.37417599367045     -2.65834633420176      0.27182465942837
  Cl          0.19153303360799     -3.87450611775263      0.78357775317312
