23
Coordinates from ORCA-job NEB_product E -44.455872802110
  C           1.82972364590777      0.66414197704569      1.53806745147996
  C           2.15262946333552     -0.76010796822314      1.92920899537910
  C           2.08853481151319      0.81975000272518      0.02599251363061
  H           0.77872804784191      0.87488743078226      1.74814441944601
  C           0.93995212602366     -1.60943202769177      2.37310879689490
  C           2.69864980839166      1.63361001593275      2.35825651376297
  C           4.14957045359470      1.60303371976455      2.02135460291886
  C           4.85395370820056      2.68907089701637      1.75863795137310
  O           3.23187349626452     -1.26603367002651      1.84824133250221
  Cl          2.53325023073478      1.19046650876657      4.10573099393996
  H           2.29793112874283      2.64597391502526      2.27701899853501
  H           4.60967770790489      0.62589551281316      2.03591304797440
  H           5.90540854015232      2.63951747165479      1.53661183955117
  H           4.41036355091355      3.67189826418811      1.75718744521132
  C           1.68756079662663      2.19432845665971     -0.49176206794805
  H           1.51014044624001      0.05747233974600     -0.49849827958395
  H           3.14564236604943      0.63894405208449     -0.17201684137575
  H           0.65500983418546      2.41596851638798     -0.23290773126889
  H           1.78016506309471      2.21692247364478     -1.57434391429621
  H           2.32739553616117      2.96987361768756     -0.08111818182459
  Cl          1.46780581739290     -3.18405469058315      2.97253365111052
  Cl         -0.04783996185814     -0.80872933123461      3.60168346014108
  Cl         -0.03882661741405     -1.83849748416605      0.89835500244626
