20
Coordinates from ORCA-job NEB_reactant E -46.060557172450
  C           1.47434593518356     -0.09592762141300      0.00730310695805
  C           2.20977743649951      1.01203618254420      0.17896083412918
  C           0.90884841043370     -0.84547177445977      1.16706532898121
  H           1.25586872445129     -0.49800969596718     -0.96422513494669
  C           2.74388743082318      1.74311770406617     -1.03058625613763
  C           2.80303844496236      4.89544111090382      0.61638947168376
  C           2.27506022299798      3.85062941414011      1.23192802764137
  C           3.08165356250367      2.67568210757505      1.69844804327167
  O           2.45645962706966      1.43016623892426      1.42980952009561
  Cl          1.87911444748207      6.24780466197674      0.12029184007868
  H           3.85691120680088      4.98538313973241      0.39554943968451
  H           1.21538483011064      3.79325360117973      1.43178702661932
  H           3.14407261203490      2.68599387336115      2.79216970205600
  H           4.10075505787181      2.70410326343633      1.29360279634135
  F           0.16555162374401     -1.88627897420128      0.76262753584517
  F           1.85745600776629     -1.35446484251073      1.97712184544993
  F           0.11661188682580     -0.09653247543428      1.95268367620688
  F           1.85754525785240      2.70991800266201     -1.43891945963802
  H           2.85740874966944      1.04848982112238     -1.86724937800249
  H           3.69184852491686      2.24876626236191     -0.82705796631784
