20
Coordinates from ORCA-job NEB_product E -46.065302474800
  C           2.41638512400507      1.40217768728199     -0.02105712772734
  C           1.07453474668536      1.91772302543090     -0.57894935472687
  C           2.16563925324205      0.18188014282149      0.86446952532852
  H           3.05762561103735      1.06082780457152     -0.84009974050170
  C           1.06332798141953      1.97482709069016     -2.09273383782444
  C           3.15830574997929      2.49380685480531      0.77208419972611
  C           2.42257984883551      3.00727543910679      1.96240356391611
  C           2.97449500337529      3.08558652449359      3.15971223281707
  O           0.16088036075079      2.23951524322034      0.11734760746955
  Cl          3.45249469675881      3.86372017722197     -0.37021973887413
  H           4.14916519561964      2.12660575401211      1.05594360240930
  H           1.40646502798972      3.32899681555795      1.78936734387896
  H           2.42757340449030      3.46690849033810      4.00317082742156
  H           3.98762869551425      2.76721680639684      3.34498088083792
  F           3.31439312828634     -0.28626568672878      1.37960744562673
  F           1.34609630948891      0.39619282538510      1.88656393396338
  F           1.64198566626690     -0.82050146246310      0.14071207150299
  F          -0.12110738302773      2.45171835435827     -2.56148309143753
  H           1.20513782266042      0.96928186449151     -2.50886916893688
  H           1.85829375662219      2.64480624900794     -2.44435117486929
