23
Coordinates from ORCA-job NEB E -65.067594931620
  C          -0.48807691594154     -0.52804546069315     -0.90432224314098
  C           2.49562258049545     -0.06219890783562      0.01841071684254
  C          -0.30155056444613      0.49886329085174     -1.88762840020719
  H           1.95135546803544     -0.95157330138483     -0.34335972989465
  C           4.03615267792500     -0.20380526573017     -0.07771267346423
  C          -1.19823286402830     -0.17532152526303      0.38646260129796
  C          -2.51787882901772      0.54071510630397      0.29740498463067
  C          -2.74898032288598      1.70864123830692      0.86578870385693
  O           1.96007982376855      0.91052483153140      0.44689953547530
  C          -1.37151837111066     -1.46165843588291      1.20493946688239
  H          -0.47896962790102      0.45267263397276      0.92870699347597
  H          -3.29299570775244      0.02312222369178     -0.25047179516641
  H          -1.98892023290670      2.23187344577891      1.42236798957847
  H          -3.70674954814555      2.19331189828829      0.78855963003377
  Cl         -1.65578351195675     -0.89825675402723     -2.33108626494142
  Cl         -0.91349553581453      2.13104488416563     -1.85574399047493
  Cl          0.98411525980476      0.35018481819629     -3.01503778215939
  F           4.37991569895880     -0.78618646634424     -1.23056655002794
  F           4.67224923100755      0.96010457292129     -0.00963111065665
  F           4.49246453303592     -0.98184026440918      0.91106113935296
  Cl         -2.03420022013875     -1.08399228604230      2.80906339320443
  Cl         -2.46744016131496     -2.59734682831228      0.39564489906058
  Cl          0.19283714032952     -2.27083344808402      1.43025048644180
