23
Coordinates from ORCA-job NEB_reactant E -65.192563304350
  C           1.37828802905095     -0.49467183103744      0.18547640466612
  C           2.06202447908192     -1.15529889601992      1.12749573898864
  C           1.88047283131882      0.10567227401167     -1.07805794983535
  H           0.31182047734209     -0.38695699580794      0.31174699264550
  C           3.56569732781212     -1.42246916461017      1.12865779636609
  C          -0.94541257832785     -1.80795078024140      4.73839991458931
  C          -0.09673254819951     -2.24849137770087      3.82230724837336
  C           0.16372234888906     -1.55433234506276      2.52396463148227
  O           1.55115962488122     -1.67720362658216      2.25200413895171
  C          -1.20954074791312     -2.53685708450719      6.01315366187277
  H          -1.50215458834496     -0.89244084261936      4.60265384404342
  H           0.46498741657015     -3.15981771602670      3.96896874451368
  H          -0.12457720876435     -0.49771228574417      2.57344107065353
  H          -0.41141604614821     -2.04787810012705      1.72642015608276
  Cl          2.15649048175233     -1.16487303255500     -2.31349214866638
  Cl          0.63646794825180      1.20930206200980     -1.71628329429769
  Cl          3.37596525604046      1.04692361901238     -0.87190712141450
  F           4.25163241114889     -0.38229305527500      1.61929843843264
  F           3.85661308267963     -2.47169432040812      1.89982722861354
  F           4.06095352201025     -1.69207087593769     -0.07933807049556
  Cl         -2.43684809697667     -1.69915370265988      6.97893554303406
  Cl         -1.79027972176378     -4.19290969599654      5.67976989737480
  Cl          0.28656629960876     -2.66112222611451      6.98165713402528
