23
Coordinates from ORCA-job NEB_product E -65.178413266760
  C           1.28570212408027     -0.66827154209448      1.97441980861812
  C           2.68129520584242     -0.64040582938048      2.63170808614567
  C           1.28315581889865     -1.07409184906726      0.49277081038141
  H           1.05107569472948      0.40577434847278      1.92667461768032
  C           3.75572129565686     -1.75931369210026      2.42032704395270
  C           0.15381274193281     -1.22761259739429      2.90376504546739
  C          -1.13653272309789     -1.50702579486193      2.17748995671538
  C          -2.23465625168712     -0.80259019236275      2.37418349180869
  O           3.03491394435815      0.33403472364536      3.23302522439307
  C           0.47336930942398     -2.44202592163553      3.78679331097483
  H          -0.03041965212035     -0.42119419971250      3.62406999470229
  H          -1.13125258410538     -2.36434733360747      1.52297614979197
  H          -2.26113143582713      0.04584183421537      3.03743710684339
  H          -3.15173688790835     -1.04358156520375      1.86721976179334
  Cl          1.35055116482559     -2.79527550736983      0.13046855536266
  Cl         -0.17344298276058     -0.39873217086401     -0.29577621429408
  Cl          2.67516330969282     -0.25315020128793     -0.29369140752599
  F           4.55125650373714     -1.47543242227715      1.38343022994366
  F           4.54818930661068     -1.81492833743100      3.49223063452734
  F           3.27897101086610     -2.98604729036393      2.21638927248914
  Cl         -0.86197054457624     -2.59118934608696      4.96908407419552
  Cl          0.60033513920164     -3.98430562035807      2.93884655837090
  Cl          1.96483049222646     -2.14922949287395      4.71815788766227
