20
Coordinates from ORCA-job NEB_product E -29.176834349140
  C           2.21187749551633      2.31300406452040     -0.98242236925651
  C           0.89375783263483      2.32226216777993     -1.75346572535751
  Cl          1.99714585880951      0.96928861606679      0.19568907589829
  H           3.04604252234125      2.02152579831463     -1.62481335443776
  C           0.80540589144259      1.27199477836819     -2.82445754773300
  C           2.50173379337379      3.62043019514972     -0.24639771133288
  C           3.66251287791183      3.44788258229449      0.68845282078108
  C           3.60244636682979      3.64279451037155      1.99114096013922
  O           0.00921973484566      3.09422610132483     -1.49771706315147
  C           2.80846256952668      4.71740271836259     -1.27054260161723
  H           1.60768676984615      3.89938083488639      0.31909834861824
  H           4.59053366345955      3.14911379281489      0.21763001760590
  H           2.68717730294361      3.93727168641982      2.47792694903530
  H           4.46110847864541      3.51395633521389      2.62764036744424
  H           1.46951523424995      1.54763265442526     -3.64253382710169
  H          -0.21211252847056      1.20284663360286     -3.19891034913278
  H           1.12747349878386      0.30991594863467     -2.43427500074944
  H           3.67381456583898      4.44892046450847     -1.87379553761643
  H           3.02395202281506      5.64885398416305     -0.75375905688595
  H           1.95604604865573      4.87459613277756     -1.92608839514961
