20
Coordinates from ORCA-job NEB E -29.474616657620
  C          -0.37161367152496     -1.62922278311363      0.24466181947116
  C           0.09916330051214     -2.10163970016633      1.39665201323675
  N          -1.17243531614958     -2.24175204965273     -0.72529815779838
  H          -0.95424702728788      0.60100378884968     -1.57028877993920
  H          -0.04099450619333     -3.05237057101253      1.87591197677454
  C          -0.76102857836884      0.79754199675476     -0.50354289737716
  C           0.22831913656618     -0.25589380978580      0.01226567561306
  C           0.77651054758837      0.03716544174353      1.41697965651831
  O           0.91339206861245     -1.22245797922288      2.07078357749829
  O          -0.32308999828631      2.12175138286586     -0.32511924242682
  H          -1.69957702976202      0.73746827106196      0.05541474741390
  H           1.04436745524949     -0.35394320332821     -0.71549656932221
  H           0.05982043536140      0.65120752751572      1.97934322964083
  H           1.74725671579998      0.53292932720091      1.42141122165811
  H          -2.06159401269332     -1.77508322247937     -0.85512429911130
  H          -1.31763398221795     -3.22292825800551     -0.52155315074324
  C           0.74990555386199      2.50527406747764     -1.15184737664453
  H           0.65121203495366      2.07775332574876     -2.15558240381246
  H           1.71408200444181      2.20124473456413     -0.72913855782885
  H           0.71818486953673      3.59195171298402     -1.22043248282083
