33
Coordinates from ORCA-job P E -49.856206791400
  C          -1.91194329028417      0.32643335040911     -2.33510057448557
  C          -0.11052676790106     -1.57156703582824     -1.50473707156633
  C          -1.53528260783170     -1.98183924686071     -1.69247204693934
  C          -2.41311972498895     -1.06530066273886     -2.06724647682095
  C          -0.97913635361381      0.82542870308283     -1.21413443586451
  C          -0.09936066558861     -0.30478046283491     -0.61999504501053
  H          -1.82517170967070     -3.00112321744582     -1.49509999361711
  H          -3.46239446408289     -1.26759752106413     -2.20882136335165
  C          -3.06746431748630      1.29470966124042     -2.50900286771174
  H           0.47045968071509     -2.34610034258363     -1.00731730179624
  H          -1.36913281454334      0.32843412457618     -3.29012053548393
  H           0.33645535813363     -1.38379359438304     -2.47850942234595
  H          -1.59323796848164      1.24569194900095     -0.41519229457878
  H          -0.59747029137836     -0.63379390341383      0.29883800420016
  H          -0.35935227112581      1.63257767441283     -1.60339050875040
  N           1.24263371542170      0.07544738010331     -0.19811817122659
  F          -3.86701547557557      0.95851228594323     -3.53509143045322
  F          -3.85552600203719      1.37095331003879     -1.42628579585717
  F          -2.64760603981931      2.54822996187032     -2.75846022300259
  C           2.07922859818310      0.89863645429717     -1.07809003764116
  C           3.53583764803965      0.82636986632062     -0.59748785565416
  C           2.06196798135929      0.46123509673318     -2.54131039076534
  C           1.23101408252248      0.62610596588306      1.14644695198794
  H           1.75854146590869      1.95852750160046     -1.03161566036297
  H           3.79919890051146     -0.20800172886044     -0.39378943724905
  H           3.70279272207693      1.41709418568577      0.29790697303213
  H           4.19698755328100      1.20876392561834     -1.37074128335314
  H           2.41219776006799     -0.56340231763715     -2.62946530954209
  H           2.73729594310208      1.10240512118986     -3.10448100858112
  H           1.07905127017122      0.55114307468084     -2.99110894319174
  H           0.61121950982362      0.00529592023967      1.79011375656901
  H           0.84755030159176      1.65735889850025      1.18069459066516
  H           2.23692827349971      0.61763562222356      1.55687520874902
