33
Coordinates from ORCA-job R E -49.782684934230
  C          -1.83687552600840     -0.40649043745381     -3.09691901983155
  C          -0.24078989598738     -2.58996124288013     -1.76965837414157
  C          -1.33156310835218     -2.00948583404828     -1.28029650563120
  C          -2.01771268064992     -0.87139045274561     -1.86147958385279
  C          -1.08366560771864      1.83681287244550     -0.27610806724099
  C          -0.31249603183114      0.96587381893695      0.37167337972963
  H          -1.76043197077963     -2.37641950796147     -0.35777615628758
  H          -2.73717932314977     -0.37985800584387     -1.22136684134471
  C          -2.55875297430988      0.78757757677516     -3.62265264819631
  H           0.21529344489068     -3.43137291773473     -1.27674446311273
  H          -1.15769538993054     -0.84521148676460     -3.81088727178735
  H           0.23942416159340     -2.24631790561939     -2.66969230431426
  H          -2.11352654881045      1.95406663905213      0.00702324222169
  H          -0.75623951845007      0.36368148890755      1.15578276746535
  H          -0.74327859306458      2.46715095078013     -1.07639586922178
  N           1.03738032312498      0.74437255587577      0.24142415680534
  F          -3.15242579818398      0.53435441563363     -4.80676305728172
  F          -3.51739354270957      1.24661853843271     -2.80990449362970
  F          -1.72281559948831      1.82157984015053     -3.85013038833185
  C           1.77830673458757      1.44467081977507     -0.79252338052460
  C           3.24976380353019      1.61452078132765     -0.41461429414959
  C           1.64392514081307      0.77311530583302     -2.16382660647412
  C           1.55810212037723     -0.51828975681797      0.70360905390236
  H           1.33490153786436      2.44363553787780     -0.84854935173501
  H           3.79455964479265      0.67765059283719     -0.50179107751576
  H           3.33884435835306      1.98586637808077      0.60331532266159
  H           3.71102695024054      2.33536256735633     -1.08481051216246
  H           2.12905216975245     -0.20057820558653     -2.16181170842963
  H           2.10778177494811      1.38865516356645     -2.92958052335332
  H           0.59250576347318      0.64372979686592     -2.40713338478631
  H           0.93498747287933     -0.88928399677786      1.51564299388757
  H           2.57032281484826     -0.39080652955308      1.08656613273145
  H           1.57289389335539     -1.27957936072295     -0.08708116606808
