33
Coordinates from ORCA-job TS E -49.773269205450
  C          -1.93123831341466      0.00858203765723     -1.06430133702041
  C          -0.86638810178898     -2.38261150663546      0.14371558273501
  C          -2.19094550681801     -2.17543046555344     -0.02738787572350
  C          -2.73939305721773     -1.05984609519548     -0.68724583283878
  C          -1.27144743885305      0.84889811744887      0.61619839666530
  C          -0.32475294496643      0.03777152085819      1.22497108733768
  H          -2.88868966367731     -2.85281069252447      0.44706233668403
  H          -3.80681139276415     -0.90592705666647     -0.63767518361917
  C          -2.59801440695347      1.14929005495616     -1.76783527582179
  H          -0.51058437226727     -3.20640323762074      0.73905146031400
  H          -0.95471889110435     -0.19389993317750     -1.48409452394213
  H          -0.12629530280262     -1.85691434143001     -0.42751935067397
  H          -2.22050325916074      0.91491777252184      1.12295444217490
  H          -0.64023384577512     -0.65055834721451      1.99248429824266
  H          -0.94952648054273      1.78031777254662      0.17876885821672
  N           1.01163609468064      0.05111679517933      1.00208398564894
  F          -3.13106401022763      0.79002983259685     -2.95425968796399
  F          -3.59932224579777      1.70327722829770     -1.06700423766849
  F          -1.74015976957180      2.15234601353991     -2.05367553830994
  C           1.63195779248151      0.82815015392285     -0.05804987792347
  C           2.46158186804048      1.97437018050814      0.52883274262838
  C           2.47889863873181     -0.04334720184304     -0.98785955749056
  C           1.84135391828050     -0.86982392081184      1.73683108520153
  H           0.82867143399307      1.26474769087155     -0.65426371627063
  H           3.32229724808490      1.59981962390769      1.07736425054968
  H           1.85139609260974      2.56887994156722      1.20419261586134
  H           2.82054764843749      2.61614286354562     -0.27086413890685
  H           3.36456826591567     -0.42270853405873     -0.48508502262448
  H           2.79979695208578      0.54861276020872     -1.84095812486724
  H           1.89866660599528     -0.88536445198650     -1.35874316603251
  H           1.92788033932930     -1.83297912974770      1.22239819478025
  H           1.41347589827998     -1.04688954687837      2.72224909757659
  H           2.83736020675766     -0.45175589879022      1.86766401308092
