21
Coordinates from ORCA-job NEB_product E -43.195113796780
  C           1.80335041757350     -1.53328759017918      1.08568912450766
  C           3.16549745974468     -1.70656688506958      1.73370865322550
  C           1.80130554370081     -1.11433291677931     -0.37318091303890
  H           1.32698377184500     -0.71992423737895      1.65359465298975
  I           4.64137985004241     -2.83113576183898      0.68375700364934
  C           1.01042984605394     -2.83329437604968      1.41627816209011
  C          -0.41435551466365     -2.77049051893001      0.93131676602420
  C          -1.42583796563640     -2.40163877659442      1.69392601864158
  O           3.40704840249555     -1.30153279903896      2.82252863981250
  O           1.72474749208655     -3.90760677445397      0.85621931957691
  H           1.00941557401537     -2.91742302160810      2.51933435116941
  H          -0.56312073318041     -3.07760100345474     -0.09483878678287
  H          -1.28673625334428     -2.10782416450490      2.72183340761346
  H          -2.43123235042836     -2.36455273825808      1.31443092700935
  Br          0.12385065542295     -0.18048911438671     -0.77627732384598
  Br          3.22087732032932      0.20921623842283     -0.67074742384342
  Br          1.98104385426907     -2.51708032668635     -1.68190129432734
  C           1.29737803652124     -5.17818462697481      1.28527236229659
  H           1.40617112117298     -5.27825467880065      2.37125646526223
  H           1.94388784671826     -5.89296977701237      0.78204010984340
  H           0.25461562526147     -5.36332615042309      1.01125977812651
