17
Coordinates from ORCA-job NEB E -41.431643243890
  C           1.08249882442050      0.62418668809542     -0.12769441958831
  C           0.24523864720111      0.36637436381942     -1.41347295460860
  Br          2.90646250364670     -0.00435488797796     -0.08277257370502
  H           1.14117447274248      1.70799970764666      0.00622074526431
  I           1.00096833685944     -1.23148637965466     -2.67391812938317
  C           0.08132062477158      0.00080420306719      0.85083842587256
  C          -1.02109896063444     -0.05984854677843     -0.19540037411646
  C          -1.60569093405591      1.17197470516622     -0.56078359555095
  O          -0.23866341550552      1.31749202892513     -2.10011003347576
  C           0.40873906863103     -1.37237566271202      1.41983074867797
  H          -0.14390215101623      0.63359098850804      1.71659579698622
  H          -1.55061038013808     -0.98578122997398     -0.36959457328380
  H          -1.36694784833302      2.09507521795866     -0.05764111131838
  H          -2.39915945490307      1.20005472387962     -1.28996564264284
  F           0.73964055197351     -2.27774919222540      0.50054644908287
  F           1.39257089273759     -1.32839056371038      2.31976414047018
  F          -0.67254077839768     -1.85756616403353      2.05755710131918
