17
Coordinates from ORCA-job NEB_product E -41.522673568570
  C           1.24063171588242     -0.54326124419997      2.60873879810485
  C           2.29648712078067      0.40722476441729      3.09687194547870
  Br          2.10850588611659     -2.25762910717836      2.20632096708141
  H           0.85394575824887     -0.17844351163025      1.65162246332142
  I           1.55247011550332      2.44885550413886      3.13475342688268
  C           0.04527375491418     -0.69857715179897      3.56345920124732
  C          -0.97813182723747     -1.65761035950627      3.01389051484077
  C          -2.17855138341781     -1.27925721913562      2.62104666359197
  O           3.41083575338706      0.18040256420986      3.38826922291701
  C           0.46209834905021     -1.14908431025637      4.96563620228417
  H          -0.41623066916253      0.28892482047087      3.69478258820009
  H          -0.66339453618275     -2.69010183305249      2.96012867989290
  H          -2.50488741017151     -0.25345686836536      2.67495355936040
  H          -2.88644395456185     -1.98883284918633      2.23174525422132
  F           0.93727773810075     -2.39131580144085      5.01959353161888
  F           1.40102654657898     -0.34581907331171      5.49288027271274
  F          -0.58811295782913     -1.09801832417431      5.79560670824336
