18
Coordinates from ORCA-job NEB E -30.629922014010
  C           0.65297931429104      0.54737697003922     -0.62238263240510
  C          -0.67315787828219      1.09524678727643     -1.05385028767921
  H           1.01363289577557     -0.11711123595031     -1.41850173411399
  H           1.37618295780093      1.36507924987060     -0.54237399348978
  C          -0.72864208993787      1.76649472662280     -2.26613525015346
  C           0.57740815560026     -0.23478952956877      0.71434324170890
  C          -0.75217925335836     -0.90553274144857      0.79602065379005
  C          -1.86265037569362      0.05259177685428      0.76893909291330
  O          -1.81071905929998      0.94136827736162     -0.39933982323042
  C           1.74480052280184     -1.21310297885200      0.81591789776543
  H           0.67381246520592      0.48107429718107      1.54176899055265
  H          -0.86878912439270     -1.85701724020694      0.30518180191371
  H          -1.84422916429171      0.72948216901349      1.63534340576772
  H          -2.84419375280490     -0.41876199001388      0.70403873342856
  N          -0.76392391967679      2.36923890106547     -3.25349615397046
  F           1.71805717739895     -2.11130642672154     -0.22176355675019
  H           1.68354436427391     -1.79494395337632      1.74006396895932
  H           2.70806676458969     -0.69538705914666      0.75622564499297
