21
Coordinates from ORCA-job NEB E -29.106929623550
  C          -0.14580385270121     -0.77585771147068     -0.47717098685253
  C          -1.17449328317777     -0.06483349355811     -1.28644947340601
  C          -0.59601364992801     -2.20821567911186     -0.14250607918987
  H           0.76348419192903     -0.84808688182381     -1.08095472047628
  H          -1.56168027541785     -0.62009150368467     -2.13647083171509
  C           0.18827653235029      0.10581904932476      0.73679834438654
  C          -0.15816198315878      1.49834994676282      0.30506415043386
  C          -1.60094706548081      1.73497612528886      0.07060718835509
  O          -2.09152500069640      0.82129470048594     -0.87951628420558
  O           1.50095188676616     -0.04563275713842      1.23392415341690
  H          -0.43157402006365     -0.21800113396066      1.59116948036974
  H           0.37607542918165      2.30192194726111      0.79258945019544
  H          -1.78361555060963      2.73151665142688     -0.34659523646274
  H          -2.20992234826682      1.64400819053603      0.98311425523226
  H          -1.52135241664157     -2.19202810712099      0.42908204068634
  H           0.17228166452693     -2.69875531728422      0.44952651066868
  H          -0.75807886443193     -2.78009320467222     -1.05308947247615
  C           2.54291830999687      0.32891020371700      0.36248984120461
  H           3.39221431056252      0.59593448344035      0.99072258603328
  H           2.25789153473650      1.18847782329913     -0.24978291040187
  H           2.83907445052446     -0.49961333171725     -0.29255200579662
