21
Coordinates from ORCA-job NEB_reactant E -29.173589204460
  C           1.62022172467033      0.01966712144975      0.06523809124464
  C           1.40378457782153      1.28312320353884     -0.28282414747866
  C           1.95446686393250     -0.59796819607134      1.39085323128064
  H           1.52402253150495     -0.69157728475277     -0.74333760489546
  H           1.17152248702195      1.50206353588340     -1.31904274768062
  C           3.56291157430636      2.04776431414156      3.24525640644227
  C           3.07981690990071      2.54493276716583      2.11405107839732
  C           1.61599102807823      2.54729879373273      1.77585620287930
  O           1.38006159129121      2.46639993268494      0.38416588467088
  O           4.84735931742680      2.01387898761471      3.67119832948193
  H           2.91972891231513      1.60046696364289      3.99272468993955
  H           3.71074303092801      3.00109932744966      1.36727273973005
  H           1.18154540438014      3.51701759546758      2.05453699883665
  H           1.07899661501247      1.76289320380034      2.31788881825663
  H           2.61031480799948      0.03113536697953      1.98589247001382
  H           2.45324925834491     -1.55123892037994      1.22697722401527
  H           1.04858524072270     -0.79798399429753      1.96625110352534
  C           5.82801965765210      2.55841655909022      2.81970391285420
  H           6.77822191414680      2.43101865932921      3.33491885943526
  H           5.64851149087931      3.62288521228287      2.63909101284663
  H           5.85712506166437      2.03070685124751      1.86122744620435
