16
Coordinates from ORCA-job NEB E -29.347969589620
  C           0.79195062364348     -0.98444358792550     -0.53037391151463
  C          -0.59679476342454     -0.71751838629991     -1.10129774190753
  Br          0.64549814867389     -2.74562385410072      0.40436785819478
  H           1.48751057784209     -1.17061185508747     -1.34913868021922
  N          -1.15976928963639      0.51974759695853     -0.68982378411356
  C           1.31611232564204      0.01913253598516      0.43928673575620
  C           0.44021702965164      0.59216903526691      1.33908245462049
  C          -0.94103225709416      0.36422814817790      1.18574092553797
  O          -1.22480896386795     -1.50513172248906     -1.74316294681501
  Br          1.67204787003657      1.76686118371417     -1.37678730684169
  H           2.38057356875463      0.01344283582077      0.60971632207598
  H           0.76934477725026      1.45365887968401      1.89889134203468
  H          -1.61489341047331      1.08076180321950      1.63733797031429
  H          -1.31790243993918     -0.65134686562263      1.20742495998213
  H          -2.11356948919578      0.64546280784648     -1.02575853094370
  H          -0.53448430786328      1.31921144485187     -0.90550566616118
