18
Coordinates from ORCA-job NEB_product E -29.329262032470
  C           2.72474161917549     -0.50719452741993      2.26005502446240
  C           1.23819851390687     -0.47439750876660      1.97763173130934
  I           3.70098095693285      0.36864690995138      0.53503552633538
  H           2.99188314048171      0.15854557698797      3.08084679784655
  C           0.59169928273839      0.86377985713896      2.21253963971535
  C           3.29392086703977     -1.89403528022349      2.53531673967758
  C           3.02895776374275     -2.88786785887616      1.44174275084471
  C           2.53857055213256     -4.09357281013567      1.65344879358721
  O           0.63280202831967     -1.44818177430907      1.61338679042105
  O           4.68251072994209     -1.70668260058311      2.73885174727042
  H           2.82521193145650     -2.25330830071892      3.47026027944675
  H           3.32754993033987     -2.57369599673500      0.45109822668969
  H           2.24009415285547     -4.42405687372313      2.63523577067079
  H           2.39056982053548     -4.79123324429459      0.84802342296129
  H           0.46390849841315      0.99850746306616      3.28666733734645
  H          -0.38683611314150      0.89011992819605      1.74013277408031
  H           1.20804623904388      1.67711094795759      1.83797168261233
  H           5.12609008608499     -2.56098390751245      2.71485496472239
