20
Coordinates from ORCA-job NEB E -32.720971417870
  C           0.12088616199514      0.92683188568566      0.07750271172184
  C           0.10465357611980      0.56722671137357      1.40336584910616
  O           1.27254771048631      0.76109989557881     -0.66251103299091
  H          -0.55427672931724      1.69955296997311     -0.28262377300436
  I          -1.81983347029540      1.17744881444717      2.34522713841629
  C          -0.84748552217047     -0.98549953341497     -0.63894292973283
  C          -0.75342413495957     -1.81253738170714      0.48472430736473
  C           0.45287631494299     -2.02751063308899      1.10796491046794
  O           0.75371232754384     -0.30376276980610      1.97177801429890
  N          -2.05827979076384     -0.65659639620524     -1.15345807494407
  H          -0.02081821873228     -0.95899229348119     -1.33508668189397
  H          -1.66666960457155     -2.01007320136274      1.03247990125317
  H           1.36865091282255     -1.92443251255246      0.54767593116574
  H           0.50490948917341     -2.62576764190427      2.00156189507526
  C           1.89267766744368      1.97278411572247     -1.03517761741974
  H           2.71948232363354      1.70513640933009     -1.69004649843221
  H           2.27670886657526      2.50669505997728     -0.16006285347760
  H           1.19287052241301      2.62474306105627     -1.57133639179159
  H          -2.83917926940646     -0.62067870417725     -0.51579717848952
  H          -2.10000913293269     -0.01566785544408     -1.92723762669322
