31
Coordinates from ORCA-job R E -39.319811120930
  C          -1.30315525628841     -0.68522694173625     -2.96952219345797
  C          -0.10760072157499     -3.37463478955981     -2.26114715976970
  C          -1.27948268595447     -2.89664292723843     -1.84894680041479
  C          -1.79194985043977     -1.56314157616452     -2.07954087092077
  C          -1.30757349474468      1.83966880540004      0.82367789301200
  C          -0.63814540821595      0.89141765134061      0.17709757425876
  H          -1.92560296891389     -3.53880092412649     -1.26299675475720
  H          -2.64788304640126     -1.29173233788335     -1.47716739731494
  C          -1.77964859774970      0.66489151535421     -3.20536753010427
  H           0.19673934634590     -4.38291683024020     -2.04039570255258
  H          -0.47908860552014     -0.99040114329738     -3.60318265481105
  H           0.59407009979115     -2.78212427628443     -2.82334921401817
  H          -2.03545838818787      1.58133289961909      1.57037273974308
  H          -0.83277766825230     -0.15328452647779      0.38526221836502
  H          -1.14939601660555      2.88782711688821      0.64910773667110
  N           0.38610324402950      1.06869088449172     -0.72902115128604
  C          -2.75126687580686      1.28368949030117     -2.41417272948242
  C          -3.14793300443074      2.58107042103139     -2.67073616703249
  C          -2.59044269776933      3.29216505626165     -3.72161088784588
  C          -1.62601897653725      2.69385739580686     -4.51622446282285
  C          -1.22421753434849      1.39819702148443     -4.25872660231420
  H          -3.18899587666842      0.75507556204623     -1.58244523045228
  H          -3.89494337640264      3.04452441932688     -2.04306660845870
  H          -2.90265910095747      4.30731299324400     -3.91737370179675
  H          -1.18395007400827      3.24176515680687     -5.33582406016150
  H          -0.46800945923818      0.93903918968901     -4.88071619989552
  C           0.65370765008273      2.38417925506987     -1.25834759446816
  H           0.45174453079685      0.32825742016030     -1.41300057990082
  H           0.93406617974559      3.04476696189200     -0.43761871156702
  H          -0.20896924909072      2.81959446002058     -1.77804008465959
  H           1.48859788331563      2.32159259677352     -1.95367711178428
