31
Coordinates from ORCA-job TS E -39.299831750890
  C          -0.35277312194786     -0.58018224101791     -0.55171374440979
  C           1.15805355484505     -2.66582696207593      0.68482892556390
  C          -0.16395004815550     -2.80168249490478      0.40075665307499
  C          -0.91412138209766     -1.79970533807462     -0.23270343428601
  C           0.21217625043302      0.13208657916251      1.40851836900725
  C           1.11566304923993     -0.69914780151572      2.02449334051683
  H          -0.70686207320493     -3.63352311113991      0.83145302644704
  H          -1.98768010682240     -1.91559582035243     -0.26034888211975
  C          -1.13380522159293      0.53373918402833     -1.08664689900074
  H           1.66401936898513     -3.40750693671231      1.28330210013311
  H           0.68828481735720     -0.56176510658291     -0.83879704592961
  H           1.79687934932357     -2.03466941056630      0.09545064430634
  H          -0.80586828960099      0.11287283434623      1.75192949254408
  H           0.77113307539402     -1.40377165290066      2.76534576462476
  H           0.53753982276948      1.06264056466233      0.97911017864914
  N           2.47908369071461     -0.46573709259482      2.09183531814594
  C          -2.46630877545164      0.74501531459015     -0.73190043949800
  C          -3.17569925735115      1.81267265163193     -1.24700835739007
  C          -2.56929227327409      2.69898779741793     -2.12197531466337
  C          -1.24279234362478      2.51141342040669     -2.47319898931786
  C          -0.53298731787011      1.44487308230507     -1.95633598638914
  H          -2.94815227367588      0.07144606900123     -0.03903445709325
  H          -4.20757387128659      1.95960137381818     -0.96107804008803
  H          -3.12530886959691      3.53368797881357     -2.52301273873397
  H          -0.76070472394858      3.20127647081762     -3.15129151489288
  H           0.50289764022597      1.30575424525723     -2.23509336515232
  C           3.14945266587128      0.35838164376192      1.11614979833960
  H           3.01779802549145     -1.27465152231103      2.36609685804783
  H           2.68531222846281      1.34345307461977      1.09332247117062
  H           3.12597319019286     -0.05976517380825      0.10154784996333
  H           4.18961322019560      0.47562837991690      1.41599841843002
