22
Coordinates from ORCA-job P E -35.595373890740
  C          -1.37245126668818      0.39401635440537     -2.37496575865704
  C          -0.07573532646991     -1.62597748367666     -1.04044441124033
  C          -1.43075216408552     -1.90191131320186     -1.60994681643036
  C          -2.05469024490545     -0.93693915618114     -2.26742324175411
  C          -0.89754131310192      0.80870323477026     -0.96792388456440
  C          -0.06796560062733     -0.28347785117367     -0.26749648832823
  H          -1.86028055203314     -2.88099556357781     -1.47421454834677
  H          -3.03309197862489     -1.05911285854025     -2.70309860083866
  C          -2.28427910257053      1.45750036750967     -2.97479656491914
  H           0.24745742321522     -2.42501800658888     -0.37467861809292
  H          -0.50252612560588      0.29492569036745     -3.04007661115669
  H           0.64628229041157     -1.57127749789083     -1.86391067147382
  H          -1.78734883095892      1.00904590359102     -0.36799914340719
  H          -0.47931102962464     -0.46993660827824      0.72727732609109
  H          -0.34146087965153      1.74778891687111     -1.02980334207788
  C           1.39145059649157      0.10630373450164     -0.06431320676865
  F          -1.57922701141291      2.61949565955005     -3.18135383885472
  H          -3.11331902007690      1.70418006077401     -2.30386994534250
  H          -2.67012604515003      1.14681779358547     -3.95106427129134
  O           1.98744042672776     -0.09111999178111      0.95389691337865
  O           1.99990744660641      0.65177991705788     -1.12870299398547
  H           1.39404830813515      0.78472869790649     -1.87098128193951
