22
Coordinates from ORCA-job R E -35.506013333120
  C          -1.26449553339265     -0.14466650195337     -2.85890906594769
  C          -0.02453244633458     -2.72921755288000     -1.88213357907663
  C          -1.30951466815123     -2.39719888723608     -1.82393020451674
  C          -1.86675590767976     -1.09592670727926     -2.14863515958480
  C          -0.88355711580152      1.93156630008878      0.37468539169058
  C          -0.33439302446980      0.72736586651542      0.42317444073679
  H          -2.03261086672104     -3.13095363315907     -1.49105158135483
  H          -2.87582522674874     -0.92042908376510     -1.79342391238860
  C          -1.88841883895290      1.17442820184843     -3.16509105872513
  H           0.30932726422747     -3.71682611961872     -1.61578070871100
  H          -0.26790016444594     -0.28438539235290     -3.25171488237401
  H           0.74387504392595     -2.03203468421471     -2.16524847182854
  H          -1.78209685958447      2.16187482762960      0.92228661766539
  H          -0.75259256930898     -0.05884521315575      1.03526721003476
  H          -0.46173720591625      2.74806930914319     -0.19019638797193
  C           0.93356462598263      0.33672756989883     -0.24798399213690
  F          -1.06707334253248      2.20719104848493     -2.72987827539775
  H          -2.84643890756183      1.30980546723133     -2.65465296387765
  H          -2.00880620493235      1.32567467748892     -4.24388770968128
  O           1.61615435043601     -0.56687120181009      0.15591827337028
  O           1.29176614291386      1.03808349835068     -1.33120998007615
  H           0.62286145504861      1.68872821074494     -1.59373399984817
