22
Coordinates from ORCA-job TS E -35.492957431070
  C          -0.73549343497301      0.28781404947049     -1.11079285515169
  C           0.68154124393279     -1.92698526805107      0.07742588167463
  C          -0.65249644700923     -1.93824685381879     -0.13756977720976
  C          -1.35130025878277     -0.87266897137461     -0.75518946237187
  C          -0.17837741414243      0.96629937371618      0.95015755647433
  C           0.62595113413553      0.03378679913707      1.52935927548483
  H          -1.25257848766209     -2.71140207653241      0.32189753633895
  H          -2.43217801712391     -0.91171570916679     -0.74930312610881
  C          -1.48811249374084      1.44521517825805     -1.68883768849528
  H           1.15217403020771     -2.68871465567276      0.67475206864386
  H           0.31688223083063      0.28907514399210     -1.35189240833190
  H           1.35282341035392     -1.32257567292213     -0.50531168742291
  H          -1.20713388181765      1.03422959779548      1.26122309364599
  H           0.22187994375860     -0.65772010761384      2.25133670171681
  H           0.21159382511015      1.85801923727061      0.48460491448312
  C           2.10153190375906      0.03353091447995      1.46998694327743
  F          -0.71486313675885      2.58298395089215     -1.65179779990593
  H          -2.40785177966569      1.66583925687045     -1.13770688906065
  H          -1.72603655889309      1.27205592585397     -2.74673993855296
  O           2.78318768627416     -0.63997649467673      2.19612330369158
  O           2.67544603690703      0.83535199598150      0.54782670083752
  H           2.02341046529998      1.36580438611115      0.07044765634271
