23
Coordinates from ORCA-job NEB_product E -40.783464044770
  C           3.03984554572244     -1.46555768275009     -2.02073813124722
  C           1.52227883490226     -1.65882552762652     -1.90621152818599
  Cl          3.65176487274772     -0.72570395209121     -0.50649550874452
  H           3.50562042501139     -2.45588313601829     -2.07704622878057
  C           1.06095342882540     -2.47359825410011     -0.72583077560475
  C           3.41663525767852     -0.62596499771738     -3.24533919161554
  C           2.97098409486516      0.80715088900216     -3.12563101892026
  C           2.15455422716499      1.38769487591099     -3.98167264802925
  O           0.77697621090922     -1.24596133395255     -2.75253290501037
  C           4.92409976814552     -0.68946666904760     -3.52278172097466
  H           2.92233307890358     -1.08154211848735     -4.11144097161450
  H           3.38924254414621      1.35110521136540     -2.29087741794802
  H           1.73347333713948      0.85566199043137     -4.81780778634151
  H           1.86624589226850      2.41829903319340     -3.87142843198121
  C           0.97633266093873     -3.94579511975622     -1.14497537519005
  H           0.06659302095556     -2.12912415780954     -0.43953645006927
  H           1.74178698087617     -2.36428773981873      0.11605701854914
  H           0.32117875234810     -4.05570385086332     -2.00557847538184
  H           0.57666658448367     -4.53735612486448     -0.32585923572800
  H           1.95884693367756     -4.33462926840870     -1.40236848775130
  F           5.17883239944368     -0.26447949519144     -4.78377874348314
  F           5.63725189927923      0.11399088376713     -2.70574418952883
  H           5.33720324956688     -1.70832345516690     -3.42958179641835
