24
Coordinates from ORCA-job NEB E -53.725455133250
  C          -0.02982196290946     -0.86249019707786     -0.16784913755973
  C          -0.97553878823507     -0.43785209175419     -1.14025501594667
  C          -0.53025075535237     -1.84149341241238      0.86338183390107
  H           0.90633739473600     -1.24146666096947     -0.58525446479146
  C          -0.59714815210103     -0.27896747703982     -2.55516120409135
  C           0.45567626386488      0.73157912843291      0.67370530063767
  C          -0.79138155038989      1.28125875191038      1.04304534301410
  C          -1.78932894501301      1.50465624128138      0.03216386870711
  O          -2.05773032580923      0.19096225163307     -0.74391340080764
  O           1.31747324027848      0.46801070817339      1.69177676314524
  H           0.94076551767805      1.16104184661962     -0.20723729667215
  H          -1.06559503724671      1.25912817292911      2.08509586749264
  H          -1.47779662083485      2.17584916563910     -0.77037945723683
  H          -2.76735419928568      1.77487280927158      0.41804086983603
  Br         -0.91369578284375     -3.52771653494375     -0.12235917487121
  Br          0.80067454990397     -2.30961884965712      2.19690048428592
  Br         -2.16047382606281     -1.36089573261838      1.77604977907197
  Br          0.42561074190601     -1.75991923614032     -3.25955042102077
  Br         -2.15482533067410      0.03955080073865     -3.64313756205683
  Br          0.62699294906528      1.41981852868315     -2.80542761698723
  C           2.69066967868957      0.41612399905273      1.35450016189593
  H           2.91204793082134     -0.42029568204693      0.68488135534587
  H           3.21978169941291      0.26769170463145      2.29261597946142
  H           3.01491131040147      1.35017176566366      0.88836714524688
