21
Coordinates from ORCA-job NEB E -41.824812177180
  C           0.66004004918965     -0.75094068208597     -0.83119413502527
  C          -0.28183796297959      0.27838624308329     -0.81550391002072
  C           0.23456733295589     -2.18956415053149     -0.95513916228912
  H           1.55886403941494     -0.55150155352051     -1.40215452126405
  O           0.12756857899509      1.44291303615697     -1.37127723735045
  C           1.23705567692834     -0.67998550023812      1.17941848308246
  C           0.36031690429909      0.19549307401496      1.78904177839122
  C          -1.02343861927257     -0.02355084372790      1.57926126971389
  O          -1.31272886120730      0.27660437302839     -0.05452604263071
  F           2.53315262550594     -0.33400402224143      1.12281265476165
  H           1.13444057450125     -1.75330473703397      1.27989370594800
  H           0.70577316000157      1.21226075008351      1.92753181291159
  H          -1.71139964465233      0.68618201683935      2.01997041353718
  H          -1.37150924612431     -1.04763413105321      1.63686600219245
  F           1.28101127942448     -3.02240027399055     -0.72859124180939
  F          -0.72499615364336     -2.55989710987568     -0.07400687310145
  H          -0.14688121807351     -2.42275981257123     -1.96501105504608
  C          -0.67052014116296      2.58855850443729     -1.12422107790353
  H          -1.71528955601281      2.39405960389067     -1.37614286156845
  H          -0.26687478571360      3.37176659841926     -1.76096223052537
  H          -0.60731403237390      2.88931861691636     -0.07606577200386
