21
Coordinates from ORCA-job NEB_reactant E -32.762697169960
  C           2.07580835671400      0.02222761174021     -0.12474388177429
  C           1.86099812126774     -0.59023643819093     -1.27893340753058
  C           1.68442013652882      1.43710412629402      0.14314375400166
  H           2.54311844326713     -0.52059636752203      0.68249779859814
  Br          2.41734068107081     -2.44339030328021     -1.45421886157582
  C           4.20352955577072     -0.60048837608891     -4.05878570718919
  C           2.87443165779074     -0.61877760648498     -4.08480330219283
  C           2.05330960332559      0.42915671843341     -3.40824965219019
  O           1.23042285233305     -0.09142707472935     -2.34910917165850
  O           5.06747794532198     -1.47617973866561     -4.60164382526911
  H           4.74685729400117      0.20298426943624     -3.57563490327763
  H           2.31874373055278     -1.41404528412338     -4.55580675625012
  H           1.32451722904250      0.86333053414629     -4.09841546747302
  H           2.69641634563036      1.22310908808164     -3.00773849853752
  H           1.17702104155721      1.86984141308407     -0.71496877352165
  H           2.56842971368834      2.03023030264757      0.37686325249816
  H           1.01925086547070      1.47844476992924      1.00458066308280
  C           4.53010399073199     -2.63430829712128     -5.20285279642409
  H           5.38282015661713     -3.22719585325655     -5.52729312454759
  H           3.91105393732938     -2.37828262310935     -6.06812116950528
  H           3.93562834198785     -3.20660087122010     -4.48516616926336
