21
Coordinates from ORCA-job NEB E -32.713340949440
  C          -0.19001325243280      0.64622126833124     -0.33896445905624
  C           0.21045261016088      0.16213694290057      0.93508737158141
  O           0.73433583738367      0.58791049337033     -1.39405559897051
  H          -0.71781085990969      1.60630429052720     -0.31645095940944
  C          -0.48193336564405      0.65198856212163      2.17240249031636
  C          -1.32297142782647     -0.62240207390502     -0.92613874113674
  C          -0.99681162547500     -1.87900603135993     -0.36155987183285
  C           0.42696989945192     -2.02413358831701     -0.12567588643555
  O           0.71883582385558     -1.04712197538674      0.99832637122403
  Br         -3.14264858702176     -0.03133808739182     -0.63836936077280
  H          -1.07936684155242     -0.47348551383466     -1.97450071533943
  H          -1.64249517224006     -2.26474329782435      0.41806074497171
  H           1.05014186800815     -1.73568074005098     -0.97313336698607
  H           0.73598042882181     -2.97590510552929      0.29664593662724
  C           1.72466203259237      1.58650963796499     -1.30938140036748
  H           2.34793658116030      1.46966201334205     -2.19354508836229
  H           2.33516474345693      1.46788685085585     -0.40755782493492
  H           1.27520191678534      2.58645784799612     -1.30620656257660
  H           0.02709938470496      0.26279882840132      3.04984440395461
  H          -1.51325832185752      0.28859512491538      2.18862455888153
  H          -0.49947167242214      1.73734455287313      2.20654795862404
