21
Coordinates from ORCA-job NEB_reactant E -32.745132221250
  C           1.43997292072456      0.26909883634163     -0.01717867392803
  C           1.18113832706156     -1.01772638423747      0.22117030311783
  O           1.23969904774394      0.85779236421112     -1.23308368360502
  H           1.82805963305073      0.90302859535049      0.77106207049655
  C           1.33531172768183     -1.62449219079673      1.58617723803931
  C          -0.79151284638976     -4.59030839456775     -2.15209407486357
  C          -0.67207404520867     -3.29927583288459     -1.90638260230464
  C          -0.23895528836901     -2.75159600117835     -0.58322283157994
  O           0.80703114268917     -1.83336716866057     -0.82642852979243
  Br         -1.36447033761620     -5.26141962620679     -3.82168724043484
  H          -0.59884837581147     -5.36764988567646     -1.42948902994874
  H          -0.86146035865638     -2.55810508830267     -2.66870382148251
  H           0.08721884538055     -3.56411930569398      0.08194734356593
  H          -1.09423895622181     -2.23748144765369     -0.11606054471744
  C           1.92466481632136      2.06887832180145     -1.42808039917814
  H           1.58772502802783      2.46272089821770     -2.38525979348915
  H           3.00900395442390      1.91415469097048     -1.46253054009718
  H           1.69401769471281      2.79135032776534     -0.63614505286471
  H           1.93365277057190     -2.53279384931326      1.52550796792812
  H           0.36787063485165     -1.88105019952723      2.01917956980736
  H           1.83059366503149     -0.92163865995869      2.24830232533126
