21
Coordinates from ORCA-job NEB_product E -32.760288378610
  C           0.67036215960964     -0.78114903117808     -1.03719770435916
  C           1.60358651841564     -1.20830617782659      0.11445750476865
  O           1.37006400615712     -0.15971758808715     -2.08467313278852
  H          -0.12108139257342     -0.11537000082626     -0.65150002822616
  C           1.07569321591608     -0.92414650705020      1.49349266938350
  C           0.05872377288520     -2.05841964185478     -1.61511423967765
  C          -0.72147708126468     -2.84539918888511     -0.62349711197238
  C          -0.43852920640748     -4.09353271360521     -0.29889385010137
  O           2.66360765662831     -1.73016151134640     -0.10141918500138
  Br         -1.13787508103539     -1.53664123937413     -3.09141716883666
  H           0.85358819945927     -2.64593413102964     -2.07735479570998
  H          -1.57168318122434     -2.33276187654876     -0.19116885490295
  H           0.39530944508187     -4.61742839649848     -0.73579091301933
  H          -1.02616589361511     -4.63806485596003      0.41950596576105
  C           1.89732433327727      1.10148845081315     -1.75907686738404
  H           2.33913445436348      1.48646052613963     -2.67518343120472
  H           2.66907333350488      1.02850881569685     -0.98476465741808
  H           1.10802118893869      1.78367436583446     -1.41868294191424
  H           1.75320888437169     -1.32654538874718      2.24180967434201
  H           0.08988782815005     -1.36947669856317      1.61012974402372
  H           0.98042683936120      0.15182278889707      1.63133932423769
