17
Coordinates from ORCA-job NEB E -33.931295217850
  C           1.09126339739438     -0.29515164011468     -0.23259464125333
  C           0.53785914855111      0.23237253513515     -1.41181702574442
  C           0.61705087986845     -1.69039618896605      0.12197642006593
  H           2.16059442202244     -0.17807250623231     -0.08343579426946
  H           1.09205811180148      0.98911422489167     -1.97036620789455
  C           0.25311629484835      0.86717576463551      1.01127829830628
  C          -1.10891721088124      0.63218084499449      0.78995331875308
  C          -1.61284787403391      0.95857338372120     -0.50097311753401
  O          -0.74012793648896      0.14135444128900     -1.60429165223476
  Br          0.96421923737239      0.53131918909751      2.75845556889061
  H           0.67784611477079      1.79638967402573      0.64776599965767
  H          -1.60726486612918     -0.12558734788700      1.37624607045266
  H          -1.42681301745335      1.97273592614151     -0.84476588579435
  H          -2.62548603341936      0.63542853037975     -0.71148772642449
  F           1.23468411237217     -2.56852331473233     -0.71115683522551
  F           0.96057762632137     -2.07575620972580      1.36652289424278
  H          -0.46781240691692     -1.82315730665336     -0.00130968399414
