17
Coordinates from ORCA-job NEB_reactant E -33.971858472560
  C           1.96160755162098      0.11189960241789      0.06762972829020
  C           1.25487245159181      1.21268744497340      0.30474541080949
  C           2.18195758234982     -0.94894765311692      1.09283805264649
  H           2.40801279381429     -0.05702527103513     -0.89690133488758
  H           1.12152295932939      1.95895042103616     -0.47152135936241
  C          -0.57941360678096      3.72856128822320      3.79011333551588
  C          -0.70366453546726      2.73147437577050      2.93300104785179
  C          -0.01730727053137      2.70289584417044      1.60395848467687
  O           0.66880887853091      1.46664450083879      1.49190695936507
  Br         -1.47740846701349      3.76234402040995      5.44661434333780
  H           0.01985309519791      4.60795413400107      3.61255712264780
  H          -1.30756760242110      1.86534307012404      3.16033672710687
  H           0.68700185733142      3.54040736195338      1.50984516931994
  H          -0.76952673060525      2.78389784778872      0.80410782419272
  F           1.67944991354559     -2.14444440533419      0.67681406579097
  F           3.51031099191453     -1.16750956872399      1.29239422388860
  H           1.72669013759281     -0.71023301349731      2.06416019880950
