17
Coordinates from ORCA-job NEB_product E -33.972139202090
  C           1.70694834862287      1.18114678608371      1.24208621264196
  C           1.23738043520552      1.23058523372461     -0.20517213948032
  C           1.29030070920391     -0.16476959014821      1.84661804960287
  H           2.80518381280383      1.18947400440712      1.20940147516089
  H           1.33153149425015      0.25932394411260     -0.72515528471621
  C           1.21794349610102      2.42142339324451      2.00584510958622
  C          -0.15136883136145      2.29334604229384      2.58072503418047
  C          -1.18129647539358      2.97863202989548      2.12059096750370
  O           0.82731784979084      2.20504917661926     -0.75661100356536
  Br          2.49911939222510      2.86245959086628      3.45299308069989
  H           1.26702940574558      3.27218193631842      1.32032633565345
  H          -0.25781788620304      1.61063976937644      3.41204395581020
  H          -1.08481526498875      3.66491453338305      1.29518536812078
  H          -2.16361457986205      2.86637977519831      2.54398772339995
  F           1.52794379396377     -0.22097581609892      3.17026659995969
  F          -0.03685558462972     -0.38536344162028      1.68397219381973
  H           1.82166988452598     -1.00744736765622      1.37399632162208
