22
Coordinates from ORCA-job NEB E -37.353724288780
  C          -0.07588543686497      1.01195465349078      0.75406532403062
  C           0.18837330206458     -0.28048323223433      1.33778350276231
  O           0.68213676688120      1.37928169872179     -0.33841807526203
  H          -0.52150141895130      1.81960201832893      1.32441813291402
  C           1.27970225552641     -0.51966318725449      2.31680429800747
  C           0.12465722828271     -1.50145846853487     -1.59685075851970
  C          -1.14121598001114     -1.33205125832170     -1.24699420047427
  C          -1.63350886351659     -1.25619303453041      0.17180089363481
  O          -0.62271303169120     -1.37293118781221      1.14172573264494
  O           0.59001277126284     -1.57033469040978     -2.86419462261749
  H           0.92223024924674     -1.60053687810278     -0.87677968172829
  H          -1.91790276402132     -1.23314961251823     -1.99443772482903
  H          -2.31965985054968     -2.08748208531949      0.37198541009860
  H          -2.17828273907049     -0.30958780396042      0.31244633815402
  C           0.55245438497857      2.71129006958979     -0.75570330917399
  H          -0.46789482541124      2.92295083141747     -1.09608821754832
  H           1.24537424172139      2.84598108754549     -1.58452222646428
  H           0.80542595702481      3.40792124765949      0.05146063405490
  F           1.02425415542903      0.11080469099870      3.54167396949575
  H           2.23313713982990     -0.09676498877147      1.98026733303601
  H           1.37003967110203     -1.58581858842022      2.53800731322034
  H          -0.13923321326229     -1.46333128156207     -3.48845006543639
