22
Coordinates from ORCA-job NEB_reactant E -37.460594097400
  C           1.49515417129247      0.21295210559290     -0.00910583965362
  C           1.36442433576183     -1.11642046321554     -0.05441354154801
  O           1.26415641363417      1.01747139101303     -1.07221184418868
  H           1.80824563630017      0.69144928769736      0.91241490033970
  C           1.55621438459403     -1.95297918541682      1.18313331529442
  C          -0.62688103377207     -4.45557203737909     -2.49360606044662
  C          -0.37980836050298     -3.15358788111969     -2.49949100648478
  C          -0.26039780263689     -2.32899416140715     -1.26222164921806
  O           1.05902778246996     -1.77831028255295     -1.21976377256737
  O          -0.73968553509702     -5.24535493594270     -3.58508098998155
  H          -0.79191031765402     -5.01788699392517     -1.58569625361457
  H          -0.20882672452786     -2.62607076755969     -3.42764528852088
  H          -0.45315832431471     -2.94174602579686     -0.37301648152501
  H          -0.98547782763657     -1.50150349222190     -1.27964109659560
  C           1.64361117511102      2.36350723370383     -0.90991119534170
  H           1.32793834477031      2.88155588090235     -1.81348804947784
  H           2.72870468920745      2.46011423962713     -0.79782926731135
  H           1.15210976846230      2.81496159325527     -0.04144838004310
  F           0.43425273900403     -1.91653999961611      1.99659559066011
  H           2.38341827906514     -1.58554411881325      1.79668890542364
  H           1.71493861373429     -3.00144136263773      0.91589854769887
  H          -0.57635040726506     -4.72456002418720     -4.38206054289799
