20
Coordinates from ORCA-job NEB E -39.969016639230
  C           0.34108406928925      0.93407267100244     -0.49582187986925
  C           0.39488411704090     -0.40933048416079     -1.15345853129379
  C           1.14128177056580      1.27653546371213      0.50166408573018
  H          -0.35088798789861      1.65867141888463     -0.91072881821744
  C           1.42107319651605     -0.51569198190939     -2.23078732672061
  C          -1.89967775965718      0.28550181143934      2.03607447791049
  C          -1.15337933601779     -0.84879708756307      1.88345175414046
  C          -1.44276090646818     -1.80289062945232      0.92330338870553
  O          -0.34415830134335     -1.33234892827897     -0.86679087379483
  F          -1.59677638371121      1.19031903432008      2.95451730575465
  H          -2.77346106421729      0.54324733912326      1.45993072329135
  H          -0.29082757478437     -0.97813487696939      2.52436897009306
  H          -2.34902548662070     -1.73907664115503      0.34807254047765
  H          -0.90930461929547     -2.73303266675155      0.88794112672973
  Br          1.13391315140328      2.97748966671245      1.30765566459909
  Br          2.37415086483257      0.05265145874908      1.25218699899304
  Br          1.31419946043194      3.00907643258380     -2.88952543317733
  H           2.33930392193872     -0.00947491815104     -1.94221658816486
  H           1.04395718928762     -0.00042251254035     -3.11538060287723
  H           1.60641167870799     -1.55836456959533     -2.47445698230995
