20
Coordinates from ORCA-job NEB_reactant E -40.049918289020
  C           1.34526884901655      0.06171020835584      0.00733047090293
  C           1.23105432119789     -1.26580994740419      0.20741053751074
  C           2.45615194446896      0.76262644219621     -0.63741289521086
  H           0.52713394971259      0.67852385079531      0.34979077482642
  C           2.25029311421392     -2.27934426894380     -0.20052750710470
  C          -0.40315301269501     -3.67489816906975      3.50365857556161
  C           0.36129730375405     -3.31999659204609      2.48864244424309
  C          -0.19161726042273     -2.99203741086393      1.13343967170577
  O           0.06290367522141     -1.64450218059620      0.77323152433718
  F           0.11054995501654     -3.96201048525601      4.70355158754318
  H          -1.47734847715691     -3.79158151192626      3.48112246726407
  H           1.42700787785359     -3.22137145116239      2.63707548215567
  H          -1.28180406356387     -3.07032006787597      1.14897114931274
  H           0.19808456775814     -3.68339383689298      0.37741580752777
  Br          2.07602761930079      2.66203322077719     -0.81064850864655
  Br          4.16885616046411      0.62271335033733      0.39106241472830
  Br          2.84641107664019      0.09375050547672     -2.46418570285086
  H           2.34900275737036     -3.06735720443344      0.54135751496598
  H           3.22692704050333     -1.82525970212368     -0.33070251982299
  H           1.96055260134608     -2.73237474934391     -1.15048328894946
