20
Coordinates from ORCA-job NEB_product E -40.052612567390
  C           1.33874620085660     -0.76867066722695      1.30264067853065
  C           2.60635582495029     -1.64375263909530      1.47336443110514
  C           1.27798441267948      0.04912158774131      0.03087934949653
  H           1.38992896585614     -0.05056795258807      2.13621090787020
  C           3.05969956735543     -2.49262296375665      0.32397050033611
  C           0.03801210285320     -1.58549997403622      1.54985218354271
  C           0.12687857657144     -3.04991377128870      1.23877125301584
  C          -0.56836300862366     -3.64046210022951      0.28522318068578
  O           3.17443271729549     -1.61583191205613      2.52941981660509
  F          -0.27084816584328     -1.45147251250693      2.88702542898284
  H          -0.80066574542286     -1.12570573083507      1.00701016496170
  H           0.76660246208144     -3.60792974993226      1.90846359623816
  H          -1.22669439475835     -3.09309003101538     -0.36904188290647
  H          -0.49468522677892     -4.69959333312296      0.11205451054235
  Br         -0.10469731575637      1.44742094390080      0.18622481999395
  Br          2.98203757147462      0.96620009086872     -0.27716342472093
  Br          0.84017301532485     -0.97786787932788     -1.56468785804629
  H           3.82018781187959     -3.18187088334064      0.68445361577778
  H           3.51204267039470     -1.87006496042043     -0.44709060778336
  H           2.23727195761018     -3.04702556173176     -0.12048066422779
