15
Coordinates from ORCA-job NEB E -30.351528356740
  C          -1.16145990697068      0.53184380745194     -0.54563694506330
  C          -0.03925057248576      0.21492443897858     -1.32026531051692
  I          -1.35143922019787      2.54685545371546      0.06680562585770
  H          -2.12629262164518      0.11015069068450     -0.80215466516426
  O          -0.05892793082074     -0.91678148492822     -2.08606402590828
  C          -0.58840105218148     -0.45935721888465      1.08730538203120
  C           0.66790438588440      0.06664226754695      1.36108040241394
  C           1.67800653182662     -0.11613920525662      0.39094993344968
  O           1.10564126556503      0.66609356423171     -0.99932549760728
  F          -1.59371641382952     -0.20652556437670      1.94252776449662
  H          -0.69921817203145     -1.45592251654044      0.66393406649460
  H           0.71557626899892      0.92001477194491      2.02097541217595
  H           1.79540088417629     -1.10934696849256     -0.03051352344982
  H           2.61396639650365      0.40049412293607      0.54980236644353
  H          -0.95778984279223     -1.19294615901092     -2.29942098565336
