15
Coordinates from ORCA-job NEB_reactant E -30.387118333350
  C           0.86503640542304      0.29420671993335      0.35256904994845
  C           2.00280046900573      0.00304338007587      0.98097805043563
  I          -0.85267917868503     -0.84376147205641      0.72172338335884
  H           0.76366215616644      1.08539840135480     -0.36404316692186
  O           3.15815122044617      0.69511340480870      0.79244592690634
  C           3.19797775390365     -0.43986102782260      4.92950022691836
  C           3.43257708315763     -0.18830410392781      3.65641118077070
  C           3.26248863547955     -1.22177700811105      2.58489543281167
  O           2.06631346679536     -1.02397105657357      1.84088743798418
  F           3.34085142591843      0.49993794456807      5.87221523805320
  H           2.89534339071299     -1.39035364141140      5.34550523107317
  H           3.72119489310869      0.80347682970921      3.34127416622175
  H           3.14417505222679     -2.21631377837368      3.01925833266953
  H           4.12564172345282     -1.20887706303005      1.91005349159738
  H           3.02976550288774      1.38914247085657      0.13732601817264
