15
Coordinates from ORCA-job NEB_product E -30.401020939520
  C           2.84243422950899      0.53841660212120      1.30884871924209
  C           1.35002826223429      0.59036554099484      1.60503377162949
  I           3.16160983603846     -0.69289863212659     -0.42536884733822
  H           3.22816219247076      1.53012561385973      1.05666029614386
  O           0.98350077775371      1.61320026729087      2.39271536290912
  C           3.59051684489470      0.01904187154744      2.54833772270413
  C           3.44249450081171     -1.46001614819330      2.74327851211920
  C           2.42287179511179     -2.00852274317453      3.37440169483225
  O           0.56182387044236     -0.21241118778676      1.21688041778023
  F           4.92073345609168      0.35376859067291      2.42189267836322
  H           3.23159192932120      0.56605551319408      3.43551360900255
  H           4.23302661272966     -2.05041586229206      2.30390933151868
  H           1.63228334192574     -1.42140551444041      3.81306525521221
  H           2.33159895422418     -3.07590569750936      3.46471800720899
  H           1.69412339644075      2.23530178584192      2.59891346867219
