19
Coordinates from ORCA-job NEB E -40.619242379500
  C           0.74346327125168      0.46510792429209      0.68252175157183
  C          -0.61314287017810      0.32029587167235      1.28584939684341
  Cl          0.89888144922135      2.15237889999058      0.03809788955425
  H           1.50895865564039      0.36368536263188      1.45371845392140
  N          -0.74785928230493      0.41813415542345      2.68015428580183
  C           0.82457102405902     -0.60840277340067     -0.40431520133009
  C          -0.58902740510689     -1.01041541599014     -0.64059402944155
  C          -1.68390701256300     -0.00880003956083     -0.63164084747783
  O          -1.72728450171553      0.64274216351702      0.59922767406399
  C           1.54550804412249     -0.23571723495608     -1.71831362610655
  H           1.37885963744749     -1.45696595266805      0.00965810750916
  H          -0.74004126197417     -1.87126445243903     -1.27868274439880
  H          -2.66889476113167     -0.46023252093187     -0.78268237162307
  H          -1.51499392142192      0.70304291413045     -1.45901782818173
  O          -1.86915132547526      0.55749654843141      3.13764243787232
  O           0.27394068535318      0.28951343712395      3.35028138771035
  F           0.74368343825456      0.52933060348106     -2.52109974903389
  H           1.78912453507930     -1.13624196816750     -2.28945829860119
  H           2.44731160144205      0.34631247741995     -1.51134668865385
