19
Coordinates from ORCA-job NEB_product E -40.660531408180
  C           2.89072349051782     -1.86182375398407     -0.61665037054246
  C           1.76396386314920     -1.87073983867639      0.36312147281677
  Cl          2.89027571761424     -0.09288199788413     -1.01387921587195
  H           3.84601567361319     -2.06487347698858     -0.12465683859907
  N           2.19567797632678     -1.29464161534630      1.73792081095219
  C           2.66250958034815     -2.76773049997126     -1.83071174055265
  C           1.51325744429588     -2.30589479927006     -2.68571401257699
  C           0.41655315941277     -3.01042479368756     -2.88027952701200
  O           0.62876025135935     -2.17731935298447      0.23267473642123
  C           3.93969875922899     -2.89096326703833     -2.67269145629938
  H           2.44115379687079     -3.76656462816064     -1.43686724904563
  H           1.65620661349290     -1.34805792540068     -3.16365440248609
  H           0.26046458823117     -3.96716778073902     -2.40995931371067
  H          -0.37856170293607     -2.65163877043709     -3.50948176486437
  O           1.30828988159480     -0.87174743038595      2.42272931752910
  O           3.37066363902591     -1.35103702124099      2.00660928220978
  F           4.29643827034678     -1.68944240266104     -3.21882579482279
  H           3.77548303375613     -3.58118306394244     -3.50632864907376
  H           4.78732596375123     -3.22706758120101     -2.06535528447125
