21
Coordinates from ORCA-job NEB E -52.467886476830
  C           0.90423267073186     -0.45107704192161      0.09894601144312
  C           0.77968518134422     -1.59376968588622     -0.78479455387224
  C           1.20168371761753      1.87029732244838     -2.53209647930655
  H           1.89053783349422     -0.05055562289947      0.28797844935847
  O           1.91039207081164     -1.93149473749631     -1.45234473645622
  C          -0.17770701213632     -0.02491955036916      1.02349122881738
  C          -1.55486963214661     -0.00253704989147      0.40437365633993
  C          -2.27504959526009      1.09911963155173      0.34256566523502
  O          -0.22962906647769     -2.23799249521515     -0.94899482580272
  C          -0.21286689975570     -0.97008206312206      2.24496371617944
  H           0.06463811120563      0.96103924604039      1.44056729068435
  H          -1.89703053449067     -0.94547500182850      0.00709641610219
  H          -1.92421944844906      2.04000870276452      0.73626117487063
  H          -3.25244297535306      1.10095405917476     -0.10709214747902
  Br          1.31985841427836      2.64657323863482     -0.82309977678124
  Br          1.67084553453550      2.97046908364122     -3.97374369694310
  Br         -0.25548633018974      0.70305102721676     -2.74123272789619
  H           2.68064564958627     -1.41391954652479     -1.18818268207795
  F          -0.52612847024893     -2.22530884352704      1.94800654481192
  F           0.98080937566725     -1.00049174823698      2.86326268828842
  F          -1.09789859476461     -0.54388892455380      3.15406878448431
