21
Coordinates from ORCA-job NEB_reactant E -52.581779997460
  C           1.47805005527761      0.04717898381983      0.14057612190530
  C           0.86406748908061     -0.89072302161503      0.89670910827753
  C           2.60330705479761     -0.21691557193902     -0.74440591493235
  H           1.10472972062653      1.05477202894336      0.20177863457074
  O           1.17772036256326     -2.18981393542445      0.95409116811844
  C          -0.51706982322241     -1.83249879789072      4.92822966171159
  C          -0.00132094485342     -1.78310158282189      3.71183485730992
  C          -0.80008080395874     -1.47485555243965      2.48344559696395
  O          -0.16315495703331     -0.50749115854433      1.65830647936410
  C           0.29209674623550     -2.17317216985369      6.14080958510036
  H          -1.55876371673712     -1.64541567392027      5.14059370870776
  H           1.05090074334948     -1.97747560571569      3.55182526639554
  H          -1.76379616282515     -1.03124009785298      2.73933218681891
  H          -0.95992471764821     -2.40231321335280      1.91869659786859
  Br          3.20757527358963      1.37830438215117     -1.65106103069857
  Br          4.19383031684131     -0.99683171200752      0.23622575437918
  Br          2.16168427608154     -1.58838547041256     -2.16944189255191
  H           1.89978325988904     -2.43072681254335      0.35673665405743
  F           1.58750687877434     -2.37896445797943      5.87702040353839
  F           0.23548191064624     -1.20002777828760      7.06551159328239
  F          -0.16032296147433     -3.28800278231340      6.74198545981272
