21
Coordinates from ORCA-job NEB_product E -52.590025183960
  C           1.56442761537602     -0.71134648486434      2.20476576587245
  C           2.79112958636524     -1.64939852277843      2.41940078610162
  C           1.41649382571451     -0.32654368781634      0.74113100380559
  H           1.85053497276933      0.21821032669343      2.72190389759361
  O           2.71099606337291     -2.88566284029370      1.95236433905889
  C           0.26201282949509     -1.20584479357686      2.87952558556091
  C          -0.25240432809659     -2.56645713348627      2.48579979205161
  C          -1.38297267086925     -2.74362985691493      1.82704870016949
  O           3.76147187613137     -1.23757304399654      2.97441583585668
  C           0.47251504147944     -1.21130990827154      4.39839189075777
  H          -0.52321015187475     -0.46103429627035      2.69328250682663
  H           0.31664691743773     -3.41231563104125      2.84892971855845
  H          -1.98625936512637     -1.91672490390561      1.49023998587849
  H          -1.74121132313297     -3.72822489019978      1.58614880113273
  Br          0.00393159247004      1.02155022241051      0.50762784131496
  Br          3.09887485133190      0.46373912525484      0.10385316496957
  Br          0.97992823503922     -1.80772947048726     -0.46129078582872
  H           1.88677051087358     -3.12012729901615      1.49663212056146
  F           1.37026941172664     -2.12276013976161      4.78721151839109
  F           0.88731675604840     -0.02561808198220      4.85860165327067
  F          -0.66946224653147     -1.49459868969561      5.03501587809605
