29
Coordinates from ORCA-job NEB_product E -34.626711840690
  C           2.12736810840009     -0.71045372810133     -1.94234100117372
  C           0.92480932732155     -1.64231896565974     -1.86799164031258
  C           1.84288215095807      0.44134226618937     -0.95575602073506
  H           3.02528857296155     -1.24501087598130     -1.61836587478009
  C           1.15019680628361     -2.88958726141462     -1.03926590424238
  C           2.31085956978239     -0.22895330534837     -3.39487469277169
  C           3.42057024047286      0.76829140632276     -3.51851597963130
  C           3.26438886974811      2.01370630872749     -3.92683188572087
  O          -0.12610860145266     -1.38762432017684     -2.39839145179073
  C           2.61157232478716     -1.42490223525638     -4.30399546266994
  H           1.36978830593848      0.22873983131057     -3.71453222521724
  H           4.40682148633313      0.39031674505068     -3.27774525796536
  H           2.29417810620366      2.40733835600960     -4.18233150426453
  H           4.09365346352752      2.69470589478667     -4.02208889807024
  C           3.10526781746813      1.03023844948120     -0.33969060713862
  H           1.20458748694091      0.06823498042811     -0.14942968815180
  H           1.28487836151515      1.22074783742861     -1.47586388483139
  H           3.66333233505192      0.26554362480472      0.19737225957357
  H           2.84238442958115      1.81701609066312      0.36381161383810
  H           3.74666105698165      1.45534768971774     -1.10605763904366
  C          -0.12373110663473     -3.69921456903891     -0.84238365090340
  H           1.57359191123870     -2.59150300279621     -0.07688481871632
  H           1.90689030016322     -3.48910860249226     -1.55364426528179
  H          -0.86922405830531     -3.10461081385108     -0.32029305705481
  H           0.07810351206252     -4.59777706986303     -0.26461049178649
  H          -0.53785208655504     -3.98420296508911     -1.80610274147055
  H           1.78733362711542     -2.13399785069574     -4.28673938598962
  H           3.51828055569968     -1.93415289991253     -3.98071910421758
  H           2.75402712641110     -1.08835101524319     -5.32843673947990
