20
Coordinates from ORCA-job NEB_reactant E -51.250933896760
  C           1.73440349776837      0.04676762364810     -0.03498139564223
  C           0.90419709585479     -0.76222736983672     -0.70832577612165
  C           2.33600410016565      1.20628764495926     -0.72006291428041
  H           1.97816429896898     -0.12759283141408      0.99858292098979
  I           0.04391194400038     -2.42942768192108      0.27546671206544
  C          -0.18458998137545     -1.28903019183863     -5.25196091322878
  C          -0.32733816170625     -0.64842423202138     -4.10362404097622
  C          -0.21866525443401     -1.31359769395445     -2.76901815218538
  O           0.63203852835214     -0.50427678068143     -1.97753598793221
  C          -0.29532961049514     -0.67385004304451     -6.60009279766412
  H           0.01726077361732     -2.35112041523728     -5.28436626737592
  H          -0.51728770282071      0.41433196328810     -4.06516556971223
  H           0.19379917625014     -2.32556124906778     -2.85942733811690
  H          -1.21383828854865     -1.36964192137005     -2.30376272993439
  Br          3.48133089897715      2.21880240010053      0.47335137713265
  Br          3.41907788875643      0.64750771830541     -2.28412551728372
  Br          0.95586758713466      2.43452330101812     -1.42407726831687
  Cl          1.21681614392711     -0.98129963460362     -7.50294851319119
  Cl         -1.64274571563763     -1.45677677110750     -7.48228256981070
  Cl         -0.58617721875529      1.06830616477899     -6.57104325841497
