20
Coordinates from ORCA-job NEB_product E -51.255505709720
  C           1.51105445813927     -0.19431591646288     -2.47643661140665
  C           1.12611046883212     -0.93469324311094     -1.20818100719146
  C           1.55018847547651      1.29802774774141     -2.15795998974510
  H           2.52931464619993     -0.47305825089515     -2.77539174898509
  I           2.15777350854945     -2.82012701229039     -1.00188430343638
  C           0.54611100058656     -0.79899503967880     -3.54786569018727
  C          -0.91845318216442     -0.70703197066150     -3.19720530909761
  C          -1.57634546557657     -1.68745566433861     -2.60778078778508
  O           0.31993950958396     -0.60749276320130     -0.41340314698150
  C           0.76258205515517     -0.34109237565820     -4.99423604431539
  H           0.81763532485029     -1.86487603259694     -3.55360778316266
  H          -1.42812444553904      0.20146132773211     -3.47541788865457
  H          -1.10837689495652     -2.61937323036128     -2.33279797982121
  H          -2.62085565780820     -1.59230308800957     -2.37176742103235
  Br         -0.16269941210385      2.12809965043717     -1.84765727968928
  Br          2.61749790772860      1.50244374114329     -0.49642633009640
  Br          2.53581091542320      2.33111164710235     -3.48123210316294
  Cl         -0.12566219695707     -1.49246372821613     -6.04246690150533
  Cl          0.11859132888162      1.27656666412896     -5.33118525237347
  Cl          2.48300765569898     -0.41273246280359     -5.45099642137026
