22
Coordinates from ORCA-job R E -27.470102639650
  C          -1.41880715011728     -0.10205685340158     -3.14303728046435
  C          -0.15920022748752     -2.47879514515575     -1.73535160903196
  C          -1.32078881365754     -1.90585555766853     -1.43553434239534
  C          -1.90982550724326     -0.74958912625145     -2.08753381112564
  C          -0.90157922503838      1.25683860740091      0.44650067873130
  C           0.14587928370877      0.48416942672050      0.26866240083781
  H          -1.90946309503388     -2.31580316939400     -0.62293846893391
  H          -2.84225889801116     -0.40506767382173     -1.65509265530567
  C          -2.05845894805680      1.08935910670040     -3.77396483984506
  H           0.20135128254837     -3.33611582493408     -1.19269401633635
  H          -0.49289836180222     -0.42081648223748     -3.60065349719670
  H           0.47513434833090     -2.11974513467660     -2.52709194356970
  H          -1.65489148541839      0.99684470683511      1.17208157648970
  H           0.31956034369410     -0.42960841880764      0.80923522573892
  H          -1.05956101646172      2.16531042734020     -0.10863255541774
  I           1.66722660126585      0.90340721017178     -1.11891378885908
  C          -1.10762720889219      2.28626608128105     -3.79328524611815
  H          -2.97424821136667      1.35076018561868     -3.23889623660278
  H          -2.32917096499590      0.84076780793217     -4.80514744415323
  H          -0.84376867281893      2.57844748039539     -2.77981071695321
  H          -1.57413788314965      3.13553471437697     -4.28708665528053
  H          -0.19106618999649      2.03726763157566     -4.32286477420834
