22
Coordinates from ORCA-job TS E -27.452687738410
  C          -0.39703896538233     -0.05516418426925     -0.64462486192646
  C           0.95526590712448     -2.22293434358626      0.67568177260970
  C          -0.38591858078976     -2.21394577896477      0.48408143065243
  C          -1.04638378473582     -1.17105527120034     -0.19830524129752
  C           0.25220191158051      0.65872834242233      1.35190485412053
  C           1.11250830205824     -0.22101429936255      1.91665098202664
  H          -1.00355531236684     -2.92508982860845      1.01697305147166
  H          -2.12876300696463     -1.16624622392525     -0.17589909570608
  C          -1.14446455897536      1.08538250770365     -1.27845004205111
  H           1.41731648237670     -2.96861856293606      1.30230986226836
  H           0.64924867578353     -0.11502368221995     -0.90391416800462
  H           1.61771365892564     -1.72010623147137     -0.00426043912016
  H          -0.76495029233279      0.68807834016307      1.70508099119060
  H           0.84852076247377     -0.87620212073004      2.72448844151292
  H           0.60998273763699      1.53845347351757      0.84923609253226
  I           3.20746631969693      0.07669558191728      1.75248960827663
  C          -0.22417921444642      2.14444497936080     -1.87370398661279
  H          -1.81383060880329      1.54515029249236     -0.54594623948426
  H          -1.77960381050831      0.68245166943076     -2.07406924171652
  H           0.39772091147527      2.60250123131897     -1.10774089003036
  H          -0.80747770125710      2.93035835361787     -2.34785451250832
  H           0.42822016743057      1.70315575532963     -2.62412836820353
