16
Coordinates from ORCA-job NEB E -29.547789090850
  C          -0.93501627372268     -0.47681974184573     -1.09271609691994
  C          -0.36467942263734     -1.62634677901265     -0.60217259273634
  I          -0.03800685334546      0.45551543142988     -2.76448169257644
  H          -2.00736709663068     -0.36266756912532     -1.09543009315940
  Cl         -1.50551271275591     -2.54083370810443      0.45839986315616
  C          -0.29293455628576      0.80952691242643      0.57114042605279
  C           1.06672913448146      0.48405482590131      0.51706906356698
  C           1.52290794104588     -0.76855067172386      0.87858369628677
  O           0.83800382063653     -1.87692101881383     -0.48830282001990
  N          -0.72645219614692      2.05593888289524      0.25060383268193
  H          -0.93475789331392      0.26752370504413      1.25496587588745
  H           1.70747400795527      1.12257551153046     -0.07583214218097
  H           1.00817406897873     -1.32474647060410      1.64842276354941
  H           2.56536854123381     -1.00946929304814      0.75264883577591
  H          -0.18577014554950      2.56653409065991     -0.43221184429623
  H          -1.71816036394351      2.22468589239070      0.21931292493181
