16
Coordinates from ORCA-job NEB_product E -29.577599853060
  C           2.18101408893661      1.84201426865611      0.64214578992835
  C           1.06685080363676      2.51840439927230     -0.09055278974101
  I           1.45680664660567     -0.16541501662134      0.98476413593924
  H           3.06680980362391      1.73859788980215      0.01742479526271
  Cl          1.26705058021805      2.40914119963223     -1.84349786964711
  C           2.50267429848651      2.56854861416219      1.95467565128916
  C           3.48131534281717      1.78707701261620      2.78767823763019
  C           3.26670779824947      1.42945990601145      4.03964654680303
  O           0.11731640748625      3.05001386705445      0.37198384058524
  N           3.00280633064111      3.87909592488169      1.55795380848217
  H           1.56965292041086      2.72030719158984      2.50756658162132
  H           4.42082908418395      1.56189245062319      2.29734251739546
  H           2.33732704716608      1.64862180874087      4.53907364664910
  H           4.00434538560226      0.89520744947306      4.61301495359360
  H           3.95516429506247      3.81200221617900      1.21345304505391
  H           2.99422916687287      4.52113081792660      2.34022710915462
