23
Coordinates from ORCA-job NEB E -44.468535825350
  C           0.13929516721333     -0.49773897562940     -1.08848605230317
  C          -0.41131735588190      0.71827086339091     -1.10987719024656
  C          -0.23683277957425     -1.62909747282188     -0.18222782799321
  H           0.97242824367722     -0.68407648115325     -1.74936127719419
  C           0.06049729555115      1.77778481455494     -2.07896756430196
  C           1.26103335284411      1.15231739906159      1.11990600243139
  C           0.10829036109433      1.16223884999052      1.49902708915571
  C          -1.28633112033134      1.22893942333197      1.07407101682406
  O          -1.44251555743947      1.17963956696347     -0.34099687678942
  Br          0.02480367527666      0.43943639125394      4.53774820990132
  H           2.30674519020550      1.07190554268297      1.20958367578176
  H          -0.00302210775823      0.77887113161347      3.08007380301903
  H          -1.72926807178729      2.18569592734197      1.38039303955381
  H          -1.88025316218827      0.42531924078156      1.52908590003582
  C           0.53702602103093     -2.89986479334347     -0.51958882187143
  H          -1.31430358590308     -1.80347405668416     -0.24343801295738
  H          -0.01757696288504     -1.35744648240554      0.85790464346187
  H           0.13720850509134     -3.38275373830123     -1.40405072440090
  H           0.49351453501727     -3.60211390417952      0.31028625885271
  H           1.57866796419016     -2.65508743950632     -0.69247045791598
  F          -0.92386185427218      2.28858136180409     -2.82385504649604
  F           0.64276767114147      2.79510830465911     -1.43732161212115
  F           0.98300457568746      1.30754452659422     -2.92743817442610
