23
Coordinates from ORCA-job NEB_reactant E -44.533764888580
  C           2.75300701339992     -0.39863107027895      0.28935640433975
  C           2.52535989531793      0.72698896740860      0.96497402347139
  C           2.28027095330670     -1.74445547289092      0.72512094384380
  H           3.26951984368373     -0.34858929598614     -0.65656961373980
  C           3.01149085595037      2.05538071640912      0.42400063654234
  C           2.32171611885615      4.04449968511635      3.32681090523347
  C           1.60549692547483      2.95935747561551      3.09706573434178
  C           2.16618024329035      1.57156450349850      3.19546045278378
  O           1.78278447682521      0.73116954901656      2.11193549143791
  Br          1.58716969923958      5.77836317330673      3.25690703874111
  H           3.36928920426398      4.03454294311682      3.58384857334870
  H           0.56160763866843      3.02026777877523      2.82444216276629
  H           1.72598608950432      1.07708271108406      4.06972502489991
  H           3.25508149565887      1.59107849076271      3.31515126949938
  C           1.24932435660753     -2.29858790400548     -0.25880960164786
  H           1.84219213722411     -1.67313270578232      1.72007021333454
  H           3.13748825566402     -2.42138578425851      0.76214853347162
  H           0.38066190894438     -1.64667343154629     -0.29958244210925
  H           0.92700947942695     -3.28781385164390      0.05512443605147
  H           1.67420298561490     -2.37226445284518     -1.25703288680436
  F           3.54083864539716      1.93860038318211     -0.79957669668628
  F           2.02967779186558      2.96419276449025      0.32730366899720
  F           3.97444398581502      2.61994482745516      1.18502572788311
