23
Coordinates from ORCA-job NEB_product E -44.533669947690
  C           2.54079432031240      0.78427162328796      0.75076631236963
  C           1.22951061160558      1.39919165765868      0.32830357620518
  C           2.39969058762514     -0.74491370516964      0.65395664644466
  H           3.34256710150621      1.12323435106001      0.08628962108395
  C           1.39515417888106      2.57518127073163     -0.68106079795118
  C           2.79927597809886      1.35360095634600      2.16671510270461
  C           2.00074910789221      0.69920725135995      3.23810435327668
  C           1.04010993774280      1.32111917242179      3.89666364169139
  O           0.14336618049140      1.08210485452082      0.71360486748163
  Br          4.72391813310534      1.23314876246864      2.60208726818515
  H           2.61038810408449      2.43099231514885      2.15576585735841
  H           2.25850341559181     -0.32483463611126      3.46595922925246
  H           0.77629059169035      2.34585869456171      3.69176444447839
  H           0.47186629395801      0.82500902808108      4.66333127781029
  C           3.67368594651638     -1.51077191111052      0.98339581659097
  H           2.11258564931433     -0.97077678351438     -0.37651595227524
  H           1.57995512788211     -1.06615857790019      1.29835562757132
  H           4.51443161592455     -1.12788358448247      0.40968985493179
  H           3.53744611856599     -2.55924426749379      0.73028517424034
  H           3.92324485887499     -1.45091015557079      2.03839621502673
  F           0.23950889457829      3.13752566058380     -1.01492082837608
  F           2.17992445716296      3.53534243039659     -0.16258384697275
  F           1.98883278859473      2.15460559272553     -1.80755346112835
