29
Coordinates from ORCA-job R E -36.970946569250
  C          -1.54703809884830     -0.24986253346985     -2.70194456571091
  C          -0.43475725364483     -2.61438143610068     -1.21255028347400
  C          -1.72498989800915     -2.33139663484211     -1.39996692689177
  C          -2.28369624004458     -1.23265272015751     -2.14366203946571
  C          -1.21681236887265      0.84249562037309      0.07480681014575
  C          -0.12144041444794      0.16812241255065      0.40990690285288
  H          -2.45961538519909     -2.98799767255068     -0.94763585802700
  H          -3.36030426372753     -1.22569381886034     -2.22913574019189
  N          -1.99756287770345      0.85925605223364     -3.34552961259178
  H          -0.12868933861724     -3.46346724320244     -0.62536557515369
  H          -0.47284453321055     -0.28053845056217     -2.60829671028580
  H           0.35750192974126     -2.03119121575491     -1.64871146548847
  H          -2.15295731020761      0.71545213991325      0.59047103659594
  H          -0.11954389019897     -0.54409221971474      1.22153636683509
  H          -1.18795607836867      1.56343978239849     -0.72475598893781
  C           1.14806689042900      0.34670469461317     -0.31949095392775
  C          -1.05618100712227      1.68531404379666     -4.05716671404281
  C          -3.38574640166497      0.99405267298434     -3.70237888695401
  H          -0.08584093867123      1.63090655168667     -3.56642290999608
  H          -1.39419223427298      2.72333638475509     -4.04165967951514
  H          -0.94292158714645      1.37513617703072     -5.10368858318579
  H          -4.01156630193470      0.80201418893157     -2.83057116647273
  H          -3.67756570835566      0.29921324851782     -4.49951201826819
  H          -3.57138472310746      2.01152585233502     -4.04317878505612
  O           1.23774598004063      1.00072548313741     -1.33757646189292
  C           2.32943633180417     -0.35829047189352      0.29860022749908
  H           2.13367284017545     -1.42806893934184      0.33546201546164
  H           2.47080838866775     -0.00568203502052      1.31853748376649
  H           3.22965449251802     -0.17188991378628     -0.28124991762653
