29
Coordinates from ORCA-job TS E -36.962318001340
  C          -0.64839751639716     -0.15451851748011     -1.05378163525621
  C           0.70562238526656     -2.14138036085882      0.53117770558213
  C          -0.62966038006135     -2.19021727055884      0.27101346196997
  C          -1.30315124742034     -1.25100695806350     -0.52107168247622
  C          -0.25005590567233      0.73812990410183      0.90374534061219
  C           0.62502983156001     -0.05449845006870      1.60472791917350
  H          -1.24135084641117     -2.88489928555459      0.83257125747934
  H          -2.37990228003082     -1.31128476928308     -0.55951812301378
  N          -1.22569853955154      0.78934211126013     -1.85253958596577
  H           1.13768445079011     -2.83100740625269      1.23817108842044
  H           0.42172469356221     -0.21587425037383     -1.18728484437631
  H           1.40243210239028     -1.68418540532368     -0.14601417882018
  H          -1.27410704652328      0.83193353415317      1.22388309152790
  H           0.29993864816464     -0.60728786837005      2.47112334077933
  H           0.16225330851219      1.55600381542747      0.33837445208852
  C           2.05987639681617      0.09984395412181      1.37885515866082
  C          -0.43727926573894      1.92863073453128     -2.25534567821481
  C          -2.64702024703881      1.03052311160847     -1.78948288868057
  H           0.62026311899641      1.67534847087616     -2.23279144405269
  H          -0.60329981296436      2.79254327431568     -1.59981353360176
  H          -0.70685109106157      2.21524242545604     -3.27400400992376
  H          -2.95408386228658      1.45046704319559     -0.82398425693994
  H          -3.19127005261436      0.10276060374635     -1.95836000187332
  H          -2.91987227473638      1.73261956193582     -2.57547418527144
  O           2.51243174317203      0.67641607486579      0.40548240927519
  C           2.95578076402209     -0.47578094666087      2.45368747555843
  H           2.66110156504207     -1.49284547695846      2.69657713884661
  H           2.85546415377602      0.13123125187399      3.35239311899759
  H           3.99239720643819     -0.45624890566237      2.12768308949482
