24
Coordinates from ORCA-job P E -34.794956446870
  C          -1.33607928330457      0.31869750821288     -2.36399399757412
  C          -0.15062462417554     -1.78451789010043     -1.04458013381330
  C          -1.53598072534648     -1.95843864517917     -1.57580391221270
  C          -2.10302132203745     -0.96371925115136     -2.23862646273809
  C          -0.81712868931613      0.68986568159817     -0.96088548739614
  C           0.06164569205038     -0.41851300486678     -0.35652251723696
  H          -2.02863194632967     -2.90687498894806     -1.42819715956352
  H          -3.09543366951354     -1.02317693116034     -2.65433280533614
  C          -2.16713998312296      1.45918481087698     -2.90353078763500
  H           0.10950021756530     -2.58935763289263     -0.35618232521387
  H          -0.47305376795140      0.18954023891434     -3.02625166201349
  H           0.55127943602933     -1.81943813279236     -1.88398287119452
  H          -1.68267057025188      0.86676506129265     -0.32051362593041
  H          -0.21576395376902     -0.52320406543985      0.70900613315204
  H          -0.23484718866031      1.61030128686656     -1.02196155636012
  N           1.46426993150682     -0.05906939022489     -0.52168700617808
  O          -1.81827056282801      2.22439384878027     -3.76385159392053
  O          -3.35311215052075      1.54091251040032     -2.28496420534615
  C          -4.20275561725174      2.59939435488019     -2.70088377640230
  H          -5.11664185728170      2.50336519718605     -2.12022549803842
  H          -4.41522703713758      2.51832919816190     -3.76888972325816
  H          -3.72710579837713      3.56400499319063     -2.51189412359631
  H           1.67961390059903      0.79311762038096     -0.01563450866234
  H           2.06290956942499     -0.79397237798603     -0.16046039353137
