24
Coordinates from ORCA-job TS E -34.702552415170
  C          -0.11392760137486     -0.03979777076106     -0.81051135200725
  C           1.28380529634257     -2.29497681676297      0.21693431119843
  C          -0.05705819658563     -2.31775263757977      0.00577517634622
  C          -0.75699047971579     -1.22842259677125     -0.53819959668176
  C           0.55374333767899      0.56062841107839      1.14496475622564
  C           1.48185413446924     -0.32678466899336      1.62450445592329
  H          -0.64175434520552     -3.12694757821365      0.42304906254762
  H          -1.83577560599640     -1.24022130916668     -0.51142451259188
  C          -0.84952420812035      1.16067671758428     -1.23900825325306
  H           1.76426950673980     -3.09483906491349      0.75756103496611
  H           0.90987968234463     -0.03888148351184     -1.15361767868061
  H           1.93390714012573     -1.67475291391309     -0.37155759309637
  H          -0.43896334025466      0.54992761803639      1.55578026241217
  H           1.21346461431360     -1.07776692939865      2.34918191250048
  H           0.89540051342573      1.50099889756159      0.74491087469996
  N           2.83773662635048     -0.09554580110206      1.50118707295457
  O          -0.34521796609278      2.09745169829274     -1.81472828770021
  O          -2.15008763044453      1.13266904278285     -0.89575663281752
  C          -2.91012889248143      2.27003155558277     -1.26730155600514
  H          -3.90711822488494      2.11723598378699     -0.86157405433192
  H          -2.94992175949185      2.36291660616424     -2.35496529766289
  H          -2.46236579508869      3.17752386970074     -0.85610169078709
  H           3.09936510464331      0.51872641324784      0.74419732133660
  H           3.44540808930336     -0.89209724273095      1.60670026450462
