83
Coordinates from ORCA-job A2R E -109.255407355920
  Ru         -0.67962319849109      1.87207518875835     -0.11153431333507
  H          -0.68950574083678      0.41694057251668     -0.64735422112249
  N           0.75784321703528      1.21191890054575      1.23593242950922
  C           2.01564911736237      0.96494451912533      0.82430566139849
  C           0.47825316493693      1.05855885753258      2.54202497236496
  C           3.02564470796805      0.61004451214466      1.70587653294548
  C           1.44682326537850      0.69931158549160      3.46787123135518
  C           2.74795801894317      0.47735333135008      3.05436994197509
  H           4.02027996068313      0.42964875043687      1.32765797773280
  H           1.17228384032672      0.59365329101379      4.50588477287305
  H           3.51544274649969      0.19710217590313      3.75677835942000
  P           1.15472322882092      2.29081036770076     -1.40506236788240
  C           1.24246590423475      1.81362499729089     -3.24281753434693
  C           2.11161785297001      3.92653373945513     -1.15692818851793
  P          -2.08007246176555      1.37773070156770      1.57003408452397
  N          -3.30260272462135      2.33668606464111      2.28033122341449
  N          -2.81685695268774     -0.13636394252746      1.71580510807171
  C           2.30388237188030      1.05935442242436     -0.64138259277059
  H           2.03324115983234      0.10046921980562     -1.10008384590600
  H           3.36282661775896      1.25302755363354     -0.83131880704171
  C          -0.91928667766603      1.32606030559747      3.00816853933040
  H          -1.23581238728552      0.59526151720068      3.75892084801418
  H          -0.96178368146748      2.32162739387640      3.46685597926586
  C          -1.95429494674686      2.39859572255613     -1.32474456881824
  O          -2.77273218586258      2.69557246633546     -2.09331988058247
  H          -0.59684766901841      3.27675717775471      0.54738839506854
  C           2.61650637988420      1.34968325556308     -3.72851832348259
  C           0.26036486887132      0.65747502135058     -3.43803886889751
  C           0.73284256991670      2.98989789250176     -4.07678758781582
  H           2.91554403266054      0.42775252674145     -3.23451230237692
  H           2.55788599316344      1.14817186288192     -4.79835426694414
  H           3.38944994491493      2.09367839362741     -3.57468739989405
  H          -0.75182239306236      0.97285000938979     -3.19126124079200
  H           0.28027970222125      0.32794833793624     -4.47688151811292
  H           0.51371673042889     -0.18939609243637     -2.80486134908770
  H          -0.17255913913281      3.39566322080032     -3.62297085608237
  H           1.47401878990944      3.77968168691199     -4.16555362320330
  H           0.48598061180900      2.65175618974557     -5.08306381731761
  C           2.45233479408385      3.99699278922649      0.33543703450919
  C           3.41184380671451      4.08650380791398     -1.94198396197496
  C           1.15579975727676      5.07617655082312     -1.48169547948426
  H           3.23215657401314      3.28765455756434      0.60788194121539
  H           2.80783775261355      4.99649705037382      0.58524157080261
  H           1.56643478630125      3.79904828712866      0.93780534336786
  H           3.23609791531262      4.17775791234023     -3.00986862240264
  H           3.90636949704556      5.00110071163260     -1.61313685859229
  H           4.09592769421592      3.25970177945020     -1.75978361949295
  H           1.02783122975402      5.20853411666594     -2.55167084811495
  H           0.17997813893143      4.87775540202693     -1.03807754455393
  H           1.53790630872514      6.01015317523152     -1.07073107869659
  C          -3.61890315526136     -0.60592858872081      0.59191857568348
  C          -3.87323221360277     -2.10346952082962      0.70076576856800
  H          -3.31444036951815     -0.23000934375940      2.60064800569516
  H          -4.58553754244893     -0.08576394299838      0.52293570188086
  H          -3.04593202810484     -0.37354751375303     -0.31285773215299
  H          -4.43581890727910     -2.33029105523301      1.60482727800926
  H          -4.44486453176818     -2.44528029511062     -0.15801707141774
  H          -2.93520635184553     -2.64967708726873      0.73565851157765
  C          -3.16767407007271      3.78720160784590      2.31472182298934
  C          -3.75720274322218      4.46389441033197      1.08598205314049
  H          -4.20174503606739      2.09086505872403      1.86941672015005
  H          -3.66616494223707      4.14808578395566      3.22307426212309
  H          -2.10353722178262      4.02485279302155      2.38326464715301
  H          -4.82265558524659      4.25278080290750      1.00418523039080
  H          -3.61882650760337      5.54049629484606      1.14236092621158
  H          -3.25373621386351      4.09198754387655      0.19433016590521
  C           1.12120203319486     -2.29551551696199      1.86985708194199
  O           2.04996408113382     -2.19348983963118      2.64600641804499
  C           1.34970046922331     -2.39961515248502      0.40758256203817
  C           0.31648858340624     -2.46109565036320     -0.52593259846030
  C           0.60512883468653     -2.58168874889506     -1.87335973596361
  C           1.92036331672192     -2.62991305518152     -2.30847847202769
  C           2.95569535811277     -2.55815112673790     -1.38874520890148
  C           2.67070844387611     -2.44820226586857     -0.04213951897515
  C          -0.30430096788257     -2.32804771165561      2.34696050008488
  H          -0.71319895005388     -2.40717311261753     -0.21411009788377
  H          -0.20177380785669     -2.63542250166793     -2.58933661614792
  H           2.13760470627467     -2.71951841376921     -3.36307746128508
  H           3.98214485820790     -2.59365850409266     -1.72445299062660
  H           3.46099296695992     -2.40067406340445      0.69265779412235
  H          -0.78263430502589     -3.25436723503626      2.03531357735505
  H          -0.85892368327773     -1.48899551527710      1.92441253664629
  H          -0.32192741253097     -2.26300637171332      3.43244090461551
