83
Coordinates from ORCA-job A3R E -109.223476938880
  Ru          2.11702880458639      3.38325010630142     -0.02289985766627
  H           0.70423956348990      2.14868919542371     -0.13498262847296
  N           2.47726566373043      2.16840483469518      1.65199210703309
  C           2.88414346937324      0.87426985370017      1.41473075260636
  C           2.15628256502710      2.54328785027365      2.89440562698811
  C           2.88542708607557     -0.05675442586386      2.49627359008981
  C           2.17000594585819      1.67660715516329      3.96839794329469
  C           2.53496039404080      0.34035481086061      3.75027216509997
  H           3.18123472714922     -1.07432304743994      2.28924671038877
  H           1.90689013571233      2.02602854321124      4.95342562568183
  H           2.54120532062648     -0.35776783881450      4.57478924241427
  P           3.52475570865468      1.81147687436809     -1.01153199779710
  C           3.17301730422109      1.14111662076639     -2.75226959998782
  C           5.39676933753818      2.20970503749968     -0.86845360431882
  P           1.11174618797102      4.71612572778273      1.55515108370672
  N           1.49849430464537      6.35102278351094      1.85590575592252
  N          -0.53589702615946      4.72387517758162      1.92708037117817
  C           3.23148772606802      0.48775206716365      0.12137727304862
  H           1.21023757949636     -0.05133383606334      0.00422335418652
  H           3.65205047253062     -0.49611516206017     -0.03906788036811
  C           1.79773033338601      3.98477374448376      3.10124789032097
  H           1.11085575606179      4.11139775505197      3.94245651029588
  H           2.71087680774908      4.55134112684686      3.32046545556857
  C           1.80612763564052      4.40819111408538     -1.51481359643188
  O           1.66003098127837      5.09363046372574     -2.43813414666147
  H           3.32901394220099      4.23199794871954      0.28031544512735
  C           3.56438217426020     -0.32667157022826     -2.90913932765609
  C           1.66171115330697      1.25910374751006     -2.96861999863697
  C           3.85203418272097      2.00938667785532     -3.81000563930006
  H           2.97323115203524     -0.95077678406116     -2.24293062901385
  H           3.36190590115300     -0.64412530856769     -3.93199673081770
  H           4.61680760491355     -0.49624361937287     -2.70559835230443
  H           1.33968332854033      2.29744005374335     -2.87719154837714
  H           1.40526894963266      0.91838058361331     -3.97159700814565
  H           1.10757571985161      0.64533268793575     -2.26335210372965
  H           3.66172458204856      3.06277761452015     -3.60643254262863
  H           4.92412582564988      1.84068023618881     -3.85086379455733
  H           3.44322244634975      1.77422317106040     -4.79286376516584
  C           5.65739705391568      2.36783901056430      0.63275199017437
  C           6.29964209382672      1.08936788200025     -1.37997177776461
  C           5.72169082259637      3.53749445090529     -1.55269584295528
  H           5.50647373602175      1.42707438733842      1.15918262038166
  H           6.68404846117375      2.69092405862311      0.80092903157635
  H           4.98838120027163      3.11616246476895      1.05903485691663
  H           6.26430811265363      0.99335013715944     -2.46159516261434
  H           7.33176547519846      1.30274306853740     -1.10091434321247
  H           6.02128509942861      0.13850638241583     -0.92826742532587
  H           5.79620459194096      3.43559875218366     -2.63012295840584
  H           4.94643717821771      4.27018257667507     -1.32260713166322
  H           6.67473659325904      3.91815724644673     -1.18652302914680
  C          -1.48183544083769      5.30294560875184      0.98171638402997
  C          -2.84786026242877      4.64000450776147      1.10885404690610
  H          -0.72329390292649      5.02462481991767      2.88004315479412
  H          -1.59123032828624      6.38637115228655      1.13026781233625
  H          -1.08325570270750      5.14023735085981     -0.02369582942291
  H          -3.23918584973628      4.76768391303439      2.11598946577370
  H          -3.54348783757472      5.08823271150213      0.40462816527695
  H          -2.77532999603980      3.57759484746182      0.89311664075146
  C           2.84713031789858      6.85262357135357      1.61895148630477
  C           3.04210459374519      7.39654810416039      0.21087964648541
  H           0.82583359529178      6.95380370564854      1.38688479220692
  H           3.04220965468217      7.63944204728770      2.35734551520514
  H           3.54826947484086      6.03154273581898      1.79073132059341
  H           2.35924755367240      8.22285613814728      0.02028483244536
  H           4.06108726790969      7.75097537475685      0.08199706362524
  H           2.85308604436560      6.60500413727567     -0.51337952114365
  C          -0.13468322406376      1.37124414054430      0.00555718523933
  O           0.31340473983739      0.09315875101173     -0.36407427233105
  C          -1.27673213129309      1.74420564016335     -0.90995775949443
  C          -1.29071294672256      2.93539269202634     -1.61655010596247
  C          -2.36048778378390      3.26252510407790     -2.43049092496610
  C          -3.42544698719969      2.38817771044246     -2.55643561223401
  C          -3.40848841862588      1.18374338637717     -1.87304732309683
  C          -2.34193899055406      0.86269775110715     -1.05437081197828
  C          -0.59832547374848      1.37909442568252      1.46694214666782
  H          -0.44667527464170      3.61147217009979     -1.53322572181443
  H          -2.35619709220789      4.19690255625442     -2.97221874402885
  H          -4.26112526065802      2.63925967417730     -3.19286200182397
  H          -4.22994251371665      0.49040010847536     -1.97916353566420
  H          -2.31779844636712     -0.08293638518382     -0.53485981951154
  H          -1.51092579696680      0.79248330868398      1.55576138338751
  H          -0.79026052702052      2.39439715378119      1.80559450714421
  H           0.15508277994462      0.92362869746475      2.10697345542399
