83
Coordinates from ORCA-job A3S E -109.222404112560
  Ru          1.98860467814089      3.57960991247541     -0.21020107497277
  H           0.35069921915738      2.50292832187687     -0.12149178009482
  N           2.23717498395182      2.49666755052241      1.55978420884509
  C           2.46677090981203      1.14633080569053      1.43135133024179
  C           1.96047979555480      3.01293927311816      2.76274999091813
  C           2.37760457135459      0.32037716498087      2.58663392337964
  C           1.89454663269752      2.24368177431002      3.90658691655231
  C           2.09909073646123      0.86315847903620      3.80430970113356
  H           2.54280572269763     -0.73989039416028      2.46772322630115
  H           1.67880092852962      2.70308637257662      4.85727733993953
  H           2.03801147782756      0.24274921039365      4.68635698516751
  P           3.20250340111100      1.78447858933878     -1.06664786572600
  C           2.81158483290001      1.04457994526793     -2.77440933363024
  C           5.11089198335867      1.94083980393111     -0.89121160584944
  P           1.28065362031552      5.20763954833596      1.22177218859645
  N           2.02345101932762      6.73573759092268      1.37160867033927
  N          -0.31918289769737      5.68055918423847      1.48578861053895
  C           2.72863517154472      0.60244956781852      0.16681069001680
  H           0.90006757319115      0.30831461036316     -0.26946510303231
  H           3.06062392530752     -0.42716246377946      0.10826461444057
  C           1.75445357033722      4.49976070000972      2.85881733185577
  H           1.00315534641413      4.74259014815857      3.61499069664590
  H           2.69694872978198      4.97912903287433      3.14883773806739
  C           1.61186507422637      4.51023378159427     -1.74960946626476
  O           1.34919597393647      5.16478525735327     -2.66931050594091
  H           3.31301882617498      4.28423413795852     -0.08247447412233
  C           2.93669829610396     -0.47728909553027     -2.78408460565354
  C           1.36514602675284      1.42001841055434     -3.11152595810941
  C           3.68990556579623      1.67678044226687     -3.85323297150216
  H           2.20213287821217     -0.92462442579173     -2.11828701654178
  H           2.74666701797759     -0.84856295682228     -3.79100628926506
  H           3.92720997880330     -0.80615547389102     -2.48417160518336
  H           1.23606665759456      2.50337263452082     -3.08925354590617
  H           1.12143804681726      1.07335019214046     -4.11573859281930
  H           0.66161527608768      0.95897209862830     -2.42471902389489
  H           3.67218091932809      2.76170245091446     -3.75761257081086
  H           4.71667870523866      1.32747137354542     -3.80745376537415
  H           3.29894602315735      1.41700522135620     -4.83725334262388
  C           5.36049467510986      2.21521462497364      0.59557118766627
  C           5.85182233966751      0.65430714891410     -1.25070412826589
  C           5.64543580339974      3.13277107615561     -1.68625730924507
  H           5.06160682348234      1.36808053880654      1.21014123746150
  H           6.42088997854566      2.39873264839904      0.76574208128524
  H           4.80414235789752      3.09499080109991      0.92174514291057
  H           5.82080921835877      0.44106250265656     -2.31527524887055
  H           6.89921505099082      0.74911804820664     -0.96329472168801
  H           5.43209546592169     -0.19125700123280     -0.70816389443698
  H           5.77350132237586      2.90206339363587     -2.73814756021025
  H           4.95966208204702      3.97585735232601     -1.59180168419706
  H           6.61566762507571      3.43368792051410     -1.29200456627299
  C          -1.14946922786146      6.00452947771117      0.33205860636676
  C          -2.62484244303678      5.93116499645018      0.70426542210691
  H          -0.39426430970436      6.37857994925728      2.22295111082101
  H          -0.93030256119318      7.00208716482930     -0.07429085752661
  H          -0.91119180999795      5.26983694081147     -0.44725668901671
  H          -2.86511425873237      6.68877147871959      1.44755860687056
  H          -3.24029640883410      6.10129252587498     -0.17505025705455
  H          -2.86719432179589      4.95608432327987      1.12028238801720
  C           3.45540775989735      6.89449516484712      1.14620459881004
  C           3.78584902091143      7.26571108674312     -0.29286308686958
  H           1.51827140806765      7.41643679013809      0.80753492666728
  H           3.81663613708785      7.67347539657266      1.82822991668631
  H           3.94511091963797      5.95111440928221      1.40389513041973
  H           3.33662459478565      8.22244489513876     -0.55397322286676
  H           4.86154634355726      7.33871552888991     -0.42707264678277
  H           3.39927166210125      6.49775442245017     -0.96357351575855
  C          -0.45569207569002      1.68107161483032      0.01514196818612
  O          -0.03421293442231      0.48686382705444     -0.56603017859516
  C          -0.77078729369721      1.50021843600767      1.48761978841760
  C          -0.88075074188247      0.22093574676861      2.01719302633060
  C          -1.22626538521775      0.03892978567387      3.34360325891712
  C          -1.47555681167869      1.13140148368469      4.15488973663507
  C          -1.37290088920135      2.40838356492628      3.63132529589283
  C          -1.01905102337839      2.59092048693006      2.30738851711193
  C          -1.70699734326005      2.14975644709394     -0.73101093484282
  H          -0.70131101788785     -0.63280222526140      1.38060927381786
  H          -1.30318002032440     -0.96187015362339      3.74288861057720
  H          -1.74766171699732      0.98899008706905      5.19056929432017
  H          -1.56619107322739      3.26820925504571      4.25708053156877
  H          -0.92499092893689      3.59063386000266      1.91032622075265
  H          -2.45326129982504      1.35933571972759     -0.68446587163419
  H          -1.46793417410268      2.34222501091625     -1.77441983423898
  H          -2.11158171631779      3.05036467060465     -0.27936333590546
