83
Coordinates from ORCA-job TSA2R_3R E -109.215723619980
  Ru         -0.51659645423690      0.59092891018482      0.12129787781732
  H           0.12303265248200     -1.09767036326814     -0.05197981284810
  N           0.80508757931171      0.54681931753243      1.76058812711093
  C           2.13390511806750      0.48108914194154      1.49422140559506
  C           0.37543538999268      0.45271757924245      3.02002692310026
  C           3.05531173697089      0.31770377660439      2.54480202355409
  C           1.24364759167783      0.28622523469701      4.08845887732288
  C           2.61047439741134      0.21908287797675      3.84027864366720
  H           4.10680824049119      0.25996359166819      2.30973355717458
  H           0.85601497034064      0.21264668809238      5.09182079444790
  H           3.30712914185475      0.08984363000608      4.65510836640792
  P           1.39904030071585      1.36900172403457     -0.94688516898065
  C           1.85065789752805      0.85298677845927     -2.71471024297220
  C           1.81871937713873      3.22095057060915     -0.70674200289524
  P          -2.03884197234078      0.04910686916559      1.74741957001811
  N          -3.49194421460374      0.87887669716088      2.08106506588728
  N          -2.48442383397489     -1.51593358599786      2.18531827932380
  C           2.55890021624032      0.47396109558902      0.11360876564911
  H           2.37169847113835     -0.82701368873625     -0.22147103995670
  H           3.61913152200558      0.66779206629615     -0.03775040171217
  C          -1.09832430747437      0.55769082517777      3.25534518979410
  H          -1.40652734035679     -0.01565211069149      4.13382324474218
  H          -1.36004257052823      1.60876003850536      3.42709921720731
  C          -1.65364260954146      0.65168454464115     -1.32019694019526
  O          -2.39600672372684      0.75705663590577     -2.20318057472877
  H          -0.91228076074365      2.02658290467284      0.46680551970167
  C           3.34858994821334      0.61289556707865     -2.89412547220570
  C           1.12169748179459     -0.46538757019480     -2.98508174058058
  C           1.32497941381200      1.87684990856271     -3.72113185497046
  H           3.66670299970114     -0.23833353086946     -2.29745684437800
  H           3.54691096146563      0.38044191499617     -3.94013259942522
  H           3.94525231361803      1.47877795175724     -2.62471442569247
  H           0.04309203507358     -0.33622995301795     -2.89530616238501
  H           1.33544833142411     -0.80157067049226     -3.99908759361824
  H           1.45340869356667     -1.24586895773101     -2.30341799747463
  H           0.28678887491908      2.12135824001998     -3.49690857775172
  H           1.91526852051801      2.78880618606467     -3.73035810774219
  H           1.36239655164462      1.45090741115988     -4.72365716530339
  C           1.80893790403362      3.47568603808639      0.80362316289611
  C           3.19228524715981      3.62424344068095     -1.23822973241910
  C           0.71348844487831      4.07242655906233     -1.33390222852885
  H           2.62400714208502      2.95481792734833      1.30321458135702
  H           1.92456893368966      4.54175147180220      0.99740675864515
  H           0.86282526365688      3.15388143774575      1.23922494603812
  H           3.24453378382605      3.57579490428862     -2.32181381936976
  H           3.40080462518511      4.65311252387493     -0.94383217004989
  H           3.97285937704778      2.99330310305494     -0.81630207421976
  H           0.81465342421289      4.14546708996277     -2.41134402126229
  H          -0.26060398895147      3.63857046575517     -1.10190038923363
  H           0.74547306299953      5.08231827565632     -0.92649378861168
  C          -3.28361869051756     -2.31639760068399      1.26552437038308
  C          -3.01736194349109     -3.80266653631613      1.46510092225944
  H          -2.82603937300637     -1.58123981342168      3.14076579825176
  H          -4.35840720993723     -2.12137926897036      1.38903162151743
  H          -3.00076848891716     -2.02462682833101      0.25026295008640
  H          -3.25678458753915     -4.09954627319946      2.48424192320785
  H          -3.62888792954130     -4.38208785695487      0.77876473786513
  H          -1.97323379810319     -4.02882819858906      1.26906112637647
  C          -3.62165674861777      2.30911659016196      1.82933202671255
  C          -4.15206875707119      2.62496563575620      0.43855120014465
  H          -4.27092466782552      0.38619094164697      1.64937468321210
  H          -4.29486178982967      2.71911507362560      2.59173022871249
  H          -2.63632347427356      2.76564423372160      1.95219204414546
  H          -5.13473011619641      2.17986552201564      0.29141744892673
  H          -4.23373652919762      3.69986618436583      0.30198366898517
  H          -3.46728822096310      2.22907383880252     -0.30946369879704
  C           0.72317006922496     -2.15444922236351      0.00838348691991
  O           1.97016591821941     -2.01937188109835     -0.47741458175819
  C          -0.07981180375375     -3.13036312562535     -0.82967512785775
  C          -1.23067486720155     -2.77225962691751     -1.51251759876183
  C          -1.92570792519696     -3.69898224303830     -2.26962127054113
  C          -1.46523797216107     -4.99971347469579     -2.36564050041166
  C          -0.29760810379653     -5.36052068549198     -1.71400798756230
  C           0.39086572266334     -4.43338970827917     -0.95512703517692
  C           0.69842314315596     -2.58580733065703      1.48945571105940
  H          -1.58355797610283     -1.74791874643657     -1.45958228678673
  H          -2.82413102970334     -3.39989642645711     -2.79030471139553
  H          -2.00527526537181     -5.72580051266784     -2.95583316115921
  H           0.07984329442182     -6.36939201984206     -1.79965671244437
  H           1.31461812520194     -4.70803467210643     -0.46799565174803
  H           0.95265923261803     -3.64216070883534      1.55433080806981
  H          -0.28107485037729     -2.42538832199956      1.93395024357536
  H           1.44929345177383     -2.03283842124024      2.05120737604308
