83
Coordinates from ORCA-job TSA2S_3S E -109.216452755120
  Ru         -0.66217445029723      0.43473874223003     -0.46919270679898
  H          -0.16177742682530     -1.34430881253267     -0.50644741192956
  N           0.40073885862960      0.32916694054188      1.32443530934654
  C           1.73154607379007      0.06376690122226      1.24234966036358
  C          -0.21043699839456      0.31927120151585      2.51208923586740
  C           2.46014329110688     -0.22257920074798      2.41196256525593
  C           0.47229814600044      0.05990319959897      3.68959481676168
  C           1.83242417088845     -0.22367022367775      3.63164990603587
  H           3.51253305060945     -0.44464683481919      2.32602033391597
  H          -0.05334558627935      0.07067243682756      4.63062226528994
  H           2.38143807435471     -0.44272064092881      4.53500941863333
  P           1.45265260175166      0.99097005095110     -1.27963475789947
  C           2.06752141926170      0.42042146994672     -2.98260279856230
  C           2.04303944374148      2.78812348960619     -0.97728019729252
  P          -2.47437855076673      0.32746082733631      0.91092959252298
  N          -3.68321822448091      1.52812205107906      0.99044073233044
  N          -3.45728839150913     -1.00573258165904      1.23203183355113
  C           2.35829633562407      0.01146421280841     -0.05793483662764
  H           2.12019341639384     -1.26568355487465     -0.48931521551062
  H           3.44275055136967      0.10431367916568     -0.04464912280596
  C          -1.67836138521368      0.63056006762580      2.55476919043796
  H          -2.17766457682220      0.05306401717649      3.33731684749467
  H          -1.81783442741495      1.69539447324862      2.77585913727489
  C          -1.64847185337400      0.39706936035700     -2.02082361910679
  O          -2.34954793978888      0.36782982452233     -2.94233220281962
  H          -0.88449899497673      1.92944318873284     -0.30777917465184
  C           3.52659604951649     -0.03030955944987     -2.95373698699264
  C           1.20138233696473     -0.77641279259703     -3.38260519175626
  C           1.83890986773270      1.50702385266987     -4.03353910030029
  H           3.63245113893801     -0.91757502761981     -2.33476118277806
  H           3.83979794838617     -0.28741672109272     -3.96534845555337
  H           4.19250855399280      0.74296792726743     -2.58291964618682
  H           0.14929087262150     -0.49308819762915     -3.42988056685171
  H           1.50078185809124     -1.13356708974758     -4.36743270800792
  H           1.33032243941906     -1.59549582500278     -2.67814082522460
  H           0.82211485857210      1.89111434332646     -3.95672396030694
  H           2.54312476732805      2.32892482928659     -3.94348323936571
  H           1.96260580802441      1.07742975612032     -5.02768351321536
  C           1.84830667937736      3.06723133091742      0.51663345043004
  C           3.51979155059687      3.00889596411288     -1.29951885335489
  C           1.15876863528714      3.76497427602774     -1.75427179034191
  H           2.50742593908742      2.45454927870064      1.12919420066725
  H           2.07363780981997      4.11255006281051      0.72676656289035
  H           0.81591262247404      2.87796249419548      0.81178445828129
  H           3.72623734866386      2.93006617452871     -2.36252529544748
  H           3.80900410250929      4.01057417286622     -0.98072607240071
  H           4.14517206656472      2.29660733498698     -0.76409344680771
  H           1.43615789264507      3.82544483550846     -2.80082779284478
  H           0.11610805647961      3.45247103511708     -1.68527031777781
  H           1.24647489387441      4.76398301095260     -1.32844875724923
  C          -3.96417083005881     -1.79819257361136      0.11903745998120
  C          -4.27140726994306     -3.21893774158582      0.57612477638679
  H          -4.17166227439902     -0.80561086578652      1.92799742805678
  H          -4.86685654493108     -1.35805074070578     -0.32713867787457
  H          -3.18183327052581     -1.80184742105351     -0.65041881822658
  H          -5.06468669553364     -3.21324081940710      1.32097392365076
  H          -4.59366047221654     -3.82098607369292     -0.26930877361489
  H          -3.38973687398914     -3.67637897662360      1.01867470125214
  C          -3.39210965855023      2.93221537571274      0.73059181687576
  C          -3.61157459203382      3.31806762665949     -0.72556983845426
  H          -4.47651995131161      1.24017889094576      0.42063170399047
  H          -4.04021647244688      3.53237212624732      1.38063614999183
  H          -2.35128971886039      3.12091709071906      1.00668448112324
  H          -4.65054103774910      3.16108616185014     -1.01053817396845
  H          -3.36299237300753      4.36432708678645     -0.88126145751719
  H          -2.97332382489324      2.70642091702338     -1.36308994447094
  C           0.39694218722077     -2.42655169144019     -0.35608824051686
  O           1.62944529479991     -2.37238558678242     -0.88672405190612
  C           0.41218128407269     -2.77640064021424      1.12243518296512
  C           1.54728025620929     -3.38266817972997      1.64680547229069
  C           1.57905341878105     -3.79148027987741      2.96667832029580
  C           0.47471870946244     -3.60378419892803      3.77990567264360
  C          -0.65937169000893     -3.00208182196147      3.26323209251163
  C          -0.68799158857118     -2.59038613190290      1.94359500710047
  C          -0.48846584985208     -3.43720750946858     -1.10035177681460
  H           2.39836994076564     -3.53269580268766      0.99867579923991
  H           2.46770918078421     -4.26341789121545      3.36075113591806
  H           0.49724661029745     -3.92562303011477      4.81123394908051
  H          -1.52748878810035     -2.85043618803310      3.88981651628735
  H          -1.57242759869886     -2.11255358353267      1.54958183463536
  H          -0.01402830982000     -4.41512530581957     -1.03748569135261
  H          -0.57128930668141     -3.15887239471173     -2.14862614666171
  H          -1.47876261455612     -3.49198957856697     -0.65699160348040
