24
Coordinates from ORCA-job NEB_reactant E -43.070175156680
  C           1.70503864270065      0.10472364794355      0.34018353165384
  C           0.89126626736314     -0.94252350737874      0.62659912927192
  C           2.66541538287965      0.12489785749219     -0.74496957422186
  H           1.62602771318149      0.97653020124920      0.96634066562438
  O           0.84729150863148     -2.09931241492521     -0.04315364447576
  C          -0.12648570852586     -3.28957581146150      4.01614396768900
  C           0.04152824621224     -2.99228265073991      2.73846779456117
  C          -0.75423707375193     -1.94913373740535      2.01430600313380
  O           0.05244542981076     -0.82064531917630      1.64476715987600
  C           0.64679868721827     -4.33175909138116      4.75473157421645
  H          -0.88887891822901     -2.78100717106065      4.59291429967803
  H           0.79934642092056     -3.49105533268523      2.15050350268815
  H          -1.52214625487543     -1.52307924602309      2.66199413187320
  H          -1.21710229776746     -2.37296793425998      1.11616594699437
  Br          3.64757576310517      1.78467463403695     -0.82790129808783
  Br          4.03011168895094     -1.37197056736001     -0.61613783130401
  Br          1.80317834575145     -0.15105872265412     -2.56947872230133
  H           1.44493412382390     -2.11749870400085     -0.80364241181870
  C          -0.27968313917348     -5.41568443964780      5.30529973536162
  H           1.17125097672084     -3.85649766270429      5.58843220812994
  H           1.39165145538311     -4.78055047300923      4.09589976511291
  H          -1.01675542114190     -4.98344102401179      5.97819826715927
  H           0.29276958304536     -6.15990021095218      5.85307680505499
  H          -0.80494142223395     -5.91198231988450      4.49265899413042
