21
Coordinates from ORCA-job NEB E -43.168526006270
  C          -0.69084763639702      0.39159932989768     -0.94626798811183
  C           0.40275856406846      0.70340920045108     -0.10738203654356
  C          -0.38356762817006     -0.12514530905998     -2.30748139140783
  H          -1.52455321554750      1.08256843986840     -0.90207183391795
  O           1.57503879720596      0.13696739898120     -0.45410427182485
  C          -1.50831518498722     -1.00346271789778      0.32649268973330
  C          -1.68909217905400     -0.25629010806771      1.48335862423213
  C          -0.55106884048062      0.18506077289437      2.16910046353165
  O           0.23604901099762      1.27085714816198      1.01153962583186
  I          -3.22268408738177     -1.81794853835958     -0.60855794289963
  H          -0.67970634577289     -1.69761688645787      0.27246779972589
  H          -2.61919584598407      0.27409274750966      1.62486955551255
  H           0.28121202172335     -0.49879549981316      2.27995234577198
  H          -0.68344861954756      0.86018903935580      3.00129129897137
  Br         -1.92459304794388     -0.06015962427478     -3.49109602559970
  Br          1.00292938361026      0.99156374691080     -3.19363227013427
  Br          0.31853617518225     -1.94157970778180     -2.30200936794247
  C           2.69919982750761      0.34187811153186      0.38578634022297
  H           3.55325684803566      0.51648784236483     -0.26648301657447
  H           2.87163720493916     -0.55427488904588      0.98549782420142
  H           2.53645479799624      1.20059950283089      1.03872957722144
