21
Coordinates from ORCA-job NEB_reactant E -43.201733607690
  C           1.23848273642839     -0.42447248371969     -0.13284498374497
  C           1.97240598482110     -0.91771777907512      0.88723935977309
  C           1.91055071390152      0.26493423342001     -1.23721585646017
  H           0.16890903991567     -0.51884970903927     -0.17018694910543
  O           3.29671618033588     -0.75858212728538      0.85385177013939
  C          -0.93077792663159     -2.11232015833356      4.31597032142612
  C          -0.10983576624952     -2.52823499251983      3.37137143037614
  C           0.11298991153517     -1.77458464384463      2.09665493183819
  O           1.51115870831710     -1.56972482914399      1.96564889944629
  I          -1.26577738766099     -3.17755615611146      6.08993400606172
  H          -1.50873336909739     -1.20598127603571      4.24382971050516
  H           0.46330551218358     -3.43757346359210      3.47399188891983
  H          -0.41119575567555     -0.81135837045128      2.11152086383090
  H          -0.25157379637272     -2.36942097107335      1.24680910751565
  Br          0.63110576923841      0.87174995470075     -2.56347087283331
  Br          2.93257819090348      1.85128027550680     -0.62894554033687
  Br          3.22379801854651     -0.89421950244138     -2.16622951282770
  C           4.06935364551297     -1.27633747472185      1.92229554559020
  H           5.09824185842668     -1.02041623262929      1.68086130666919
  H           3.95756101107044     -2.35995534845966      1.99259515792899
  H           3.77903672055087     -0.81835894515002      2.86971941528761
