18
Coordinates from ORCA-job NEB E -29.534068665240
  C          -0.39000982119048     -0.30212255373628     -0.59703816326462
  C          -0.22947672636863      1.15879904650258     -0.68808849178263
  O           0.77742138729960     -1.06835930282521     -0.40155125274701
  H          -0.94739706123195     -0.69096208570302     -1.46153957005638
  H          -0.89167357203248      1.73187069921654     -1.32552226908136
  C          -1.25102177291744     -0.47295541073555      0.72226710064789
  C          -0.74499986196991      0.26307522883674      1.83533948626418
  C           0.51074207041830      0.98473094072089      1.55054420339550
  O           0.17270502299565      1.79018260971602      0.38377935428701
  Br         -3.16534243495330      0.17764652468173      0.16434060292980
  H          -1.42050215728170     -1.53586933168579      0.84850909526795
  H          -1.45047997841278      0.74997580158580      2.49082488680320
  H           1.34749526588027      0.32778179041377      1.29538414911269
  H           0.79537536210161      1.68954654775993      2.32904791990534
  C           1.56243059463682     -1.17306940145036     -1.56558143507463
  H           2.41166798490219     -1.79968938423210     -1.30232186633031
  H           1.91491710824461     -0.18975318052005     -1.89777896582973
  H           0.99814858987962     -1.64082853854564     -2.38061478444692
