18
Coordinates from ORCA-job NEB_product E -29.580910248270
  C           0.42977270011257     -0.83087804559544      0.95493845901553
  C           1.41706745657333      0.32794482880537      0.96477520723972
  O           1.00585912634335     -2.06719268747669      0.64217732583024
  H          -0.36514627059470     -0.56916451816795      0.22909873679997
  H           0.92605132851771      1.29857359447136      1.18226710418899
  C          -0.18235224483218     -0.95752992548186      2.35433680830096
  C          -0.85414094840035      0.27744575386775      2.83793746681892
  C          -0.60115087113754      0.83494862053274      4.00830847524791
  O           2.59109004025563      0.24168015716392      0.76369429721525
  Br         -1.52093906919405     -2.40751925266056      2.27506243265430
  H           0.57940739088136     -1.31591927478420      3.04843906915522
  H          -1.61044099788909      0.68239255369996      2.17799706395890
  H           0.13492441576653      0.43054883107493      4.68342511439829
  H          -1.11900573984160      1.71919461463955      4.33579107380672
  C           1.36038600376525     -2.23241142107265     -0.71169363732423
  H           1.71243825373784     -3.25742684096471     -0.80106202995511
  H           2.15719702560057     -1.54479544680945     -1.00728457490732
  H           0.49118240033537     -2.08599154124206     -1.36450839244426
