18
Coordinates from ORCA-job NEB_reactant E -29.577898775310
  C           1.00946220547433     -0.28519679210914     -0.11152999884998
  C           0.77369845103244      0.34590963245390      1.03533053300923
  O           1.63755188843882     -1.49137150899419     -0.18864394696780
  H           0.69972143489392      0.17071986162388     -1.04355581842910
  H           0.24691846270399      1.29330778658862      1.03273550193337
  C          -1.30524085771964     -1.17220144285517      4.41276354800393
  C          -0.89919733682200     -0.45413547368915      3.38347116418787
  C           0.41454149374760      0.27362882692034      3.35133532703011
  O           1.20208203093805     -0.11451519206636      2.25251447256448
  Br         -2.96140825160497     -2.08366519916828      4.43209049917688
  H          -0.74831455071120     -1.28840865015129      5.32872859983978
  H          -1.49349963268203     -0.38312168218339      2.48262396307813
  H           1.00650705694881      0.04549479060477      4.24089917009399
  H           0.22157337077627      1.35939903443787      3.31668217491424
  C           1.95382587611154     -1.92119985632508     -1.48876235968574
  H           2.40059821211001     -2.90818965260302     -1.38454852877335
  H           2.67245562635740     -1.24805751275251     -1.96964174436778
  H           1.05832452000664     -1.99329696973179     -2.11659255675827
