17
Coordinates from ORCA-job NEB E -30.196537481330
  C          -0.05137202052305     -1.44747573626543      0.16245259107090
  C          -1.42621657814816     -1.23615032773290      0.19978218455163
  F           0.60461835803922     -1.49292005059959      1.34089850723449
  H           0.37277131752651     -2.16321315797799     -0.53452174176571
  Cl         -2.24238686330636     -1.60168487775903     -1.33097497960259
  C           0.53151890293010      0.34751798130161     -0.47564822040435
  C          -0.08808728708736      1.14139327722170      0.47872240176409
  C          -1.51437635886518      1.16076488696918      0.53633317779876
  O          -1.95455687679949     -0.34471829314431      0.94463983021611
  C           2.02969084921696      0.24942982402542     -0.52725115497949
  H           0.04555755611511      0.26227031375326     -1.44404203261432
  H           0.46138959716618      1.39693370245369      1.37331185874566
  H          -2.03155672778906      1.27380568726840     -0.41426282044192
  H          -1.96181826668711      1.74543390442913      1.33045460336129
  H           2.34781023235405     -0.59747717778764     -1.12979161487027
  H           2.44662933741863      0.15137402985265      0.47174922460084
  H           2.43038482843899      1.15471601399185     -0.98185181466512
