17
Coordinates from ORCA-job NEB_product E -30.239426729130
  C           3.35602523835266      0.81930021343988     -1.31158896263351
  C           1.88328113133487      0.57120222588164     -1.11202630492091
  F           4.01037799390477      0.47989126534571     -0.15408026414708
  H           3.74754471412412      0.16432625601587     -2.10068370352690
  Cl          1.02144196097953      0.69680112514077     -2.65146849128778
  C           3.61695676427043      2.30354360078839     -1.65682449837449
  C           3.03345565728222      3.17792053446001     -0.58320221356097
  C           2.07610406655122      4.06033076466190     -0.79164132562540
  O           1.30177455774252      0.34039859238701     -0.11241546825028
  C           5.12109299005284      2.54016556871623     -1.79529491085636
  H           3.12172572923353      2.50724819376719     -2.61042194505404
  H           3.45486558568314      3.03401316909975      0.40187575752597
  H           1.64429075775515      4.21145873824268     -1.76794120171589
  H           1.68454276815367      4.67075272254709      0.00313023798349
  H           5.53206326522842      1.93713000601843     -2.60165604503458
  H           5.63039575700707      2.28206405219948     -0.87022315781441
  H           5.30576106234384      3.58875297128797     -2.01333750270685
