17
Coordinates from ORCA-job NEB_reactant E -30.216910896310
  C           1.86423100180147     -0.05876153078737     -0.35101474620462
  C           1.38371587500646      0.56324359674173     -1.42525221095092
  F           2.48373165905617      0.57532623955182      0.67220464846089
  H           1.81065491777830     -1.12365278348004     -0.20986829713311
  Cl          0.62186401813798     -0.42920959733652     -2.61623039409537
  C           4.24861545647893      3.57970201896980     -2.04120492722422
  C           3.55604019191416      2.71606840214541     -1.31701593572880
  C           2.08258119472751      2.83156406759028     -1.07275950771759
  O           1.33338532986948      1.84519374862701     -1.79650713603240
  C           5.71232662691422      3.48452994728313     -2.30047288508149
  H           3.75071572819808      4.43399825892349     -2.48256795425817
  H           4.04250074891903      1.85851423499542     -0.87417914820193
  H           1.70028216558378      3.77759023794680     -1.46187068034395
  H           1.85674488908452      2.76112906344989     -0.00374649684031
  H           6.13894999966286      2.60554518352585     -1.82475138275549
  H           6.21756989152621      4.37225525676205     -1.92141842796856
  H           5.89859030534083      3.43336365509124     -3.37264451792397
