20
Coordinates from ORCA-job NEB E -44.050927295950
  C           0.35729777717719     -0.38440609236166      1.18744575384196
  C          -0.99971287070695     -0.70431088351408      0.96565921017099
  Cl          0.70221407888296      0.87403165519156      2.35183548327898
  H           1.05140386113771     -1.21306576781797      1.28800686365226
  C          -1.34731782368010     -2.07527408558886      0.41884972243854
  C           0.73493639029907      0.41156689340567     -0.50650637266464
  C          -0.21801946876540      1.44383095706979     -0.57733071518357
  C          -1.58592376978199      1.08833161049543     -0.60149262014949
  O          -1.85267598605971      0.24940283252084      0.80735861809193
  C           2.18811442398390      0.77266969878371     -0.62022381158436
  H           0.54029100013085     -0.47761521804418     -1.10660367904507
  H           0.04845641977028      2.42085384653897     -0.20066577627741
  H          -1.88557101782806      0.32673678628051     -1.31618415675971
  H          -2.30009185704720      1.89671776824771     -0.52037844060093
  F          -0.23775629877076     -2.72176417532002     -0.06270559679439
  H          -2.06552598596740     -1.98883303590166     -0.40510214150768
  H          -1.77382468206876     -2.70869637322957      1.20489546610623
  Br          2.54255545319984      1.05596881610974     -2.54695280966016
  Br          2.72438581345181      2.39567863184064      0.28700174324900
  Br          3.37676454264275     -0.66182386470657     -0.04690674060246
