20
Coordinates from ORCA-job NEB_reactant E -44.089176569320
  C           2.05547668796010      0.43436184057499     -0.43968625606063
  C           1.45113381347102      0.10681199942792     -1.57777257506458
  Cl          2.81704034515893      1.92573693284529     -0.01584876714465
  H           2.09566932778802     -0.28731800481957      0.35909072917958
  C           0.82532384980495     -1.26414763997896     -1.73249470084157
  C           4.19163374715662      2.90849763799113     -2.81317642234459
  C           3.35470295699756      1.91979398549358     -3.08203409924233
  C           1.86697473438890      2.03698552916835     -2.96268223356050
  O           1.24465410634121      0.78802423094267     -2.73675969647501
  C           5.66390785986724      2.85340302518467     -2.91030409478054
  H           3.82276050788392      3.86872306453226     -2.47277240624037
  H           3.70562759459295      0.95221567359073     -3.41582181052184
  H           1.45511207906329      2.36090717463251     -3.92632881298160
  H           1.58479856662978      2.76913510646959     -2.19973783907181
  F           0.81013769122579     -1.96257247656530     -0.56213691657422
  H           1.38943511811472     -1.85849736186221     -2.46075525536043
  H          -0.21101669815061     -1.15883696380300     -2.07100200281462
  Br          6.29102575192406      4.23914065789267     -4.17062233472126
  Br          6.44629738534130      3.25019302440058     -1.14221695598510
  Br          6.37810457444024      1.15284256388207     -3.50333754939391
