16
Coordinates from ORCA-job NEB E -30.940428624380
  C          -0.75426755887921      1.14447087284374      0.44666610186154
  C           0.04717537882458      1.29595147307267     -0.67884278114140
  Cl         -0.13052702835567      1.57571811488459      2.00172717784241
  H          -1.81240060686493      1.34807594337054      0.34553279416894
  O          -0.62770519816639      1.34199950441188     -1.86904417620507
  C          -0.61644469099566     -0.95005773406124      0.54035155285535
  C           0.76509202095196     -1.08043499806235      0.59637723539455
  C           1.54133196948284     -0.69904424583135     -0.50714595276858
  O           1.29097765304564      1.03278739175812     -0.69055092675059
  O          -1.33467964829643     -1.26065795101855      1.64557888647184
  H          -1.12346756782467     -1.07860294517656     -0.41395168888399
  H           1.21205854803169     -1.10390509108825      1.57791450077136
  H           1.19041610146907     -0.97862461226704     -1.49383578981312
  H           2.61507146863964     -0.71702779945884     -0.39992578981649
  H           0.01743102513050      1.29560406845227     -2.58858110346657
  H          -2.28006186619297     -1.16625199182961      1.48772995947982
