16
Coordinates from ORCA-job NEB_reactant E -30.968137420730
  C           0.96294246521453     -0.33015694276892      0.78242093437412
  C           2.05325173697256     -1.10360075483212      0.77917550282643
  Cl         -0.51972553750545     -0.87861937291667      0.09163381031289
  H           0.94436980397257      0.66827111048977      1.17978021822127
  O           3.23042909792937     -0.70596249118898      1.33165069733352
  C           2.03153383542174     -3.66117789267742      2.69528791744332
  C           3.10453002364457     -3.70638669245726      1.91919254432390
  C           3.13432678335132     -3.18642038715406      0.51259524026505
  O           2.05124989396036     -2.31741069558278      0.20928597666888
  O           2.04388695411062     -4.13891179503536      3.97165802377118
  H           1.09891359925466     -3.23730871569251      2.34241289687541
  H           4.02194722098512     -4.13632178314573      2.28713124261131
  H           3.02543336822029     -4.00711847858930     -0.20457128710203
  H           4.08820292509696     -2.68057577614632      0.32487342129006
  H           3.14367579596771      0.18034210627770      1.69766910389898
  H           1.17573203340306     -4.03804143858003      4.37310375688571
