16
Coordinates from ORCA-job NEB_product E -30.986801808280
  C           1.83664419431265     -1.20954933364667      1.33037986008536
  C           0.52659092970148     -0.69989043704600      1.96393426647347
  Cl          1.66566742813729     -1.21460996049908     -0.43489320423405
  H           2.64158809964008     -0.51117427604224      1.58530772660436
  O           0.49699979565919     -0.80158141601033      3.28892795750274
  C           2.22313287080029     -2.61727557946389      1.81736367598115
  C           3.39044375277619     -3.14839324043750      1.03447038374811
  C           3.35372313412782     -4.26331747565752      0.33125493976012
  O          -0.37178093946246     -0.23816348965635      1.33028335162470
  O           2.55684371915142     -2.48210581290694      3.19858205159891
  H           1.35934329611083     -3.29028336319545      1.70452299211829
  H           4.28888261734194     -2.55182746844755      1.10563026371091
  H           2.45779366275026     -4.85730270144035      0.25477104953068
  H           4.21169946485233     -4.61712364500917     -0.21268347177174
  H           1.27150887279915     -1.28886528362912      3.63579854768005
  H           2.89421910130154     -3.32483651691183      3.52164960958693
