20
Coordinates from ORCA-job NEB_reactant E -47.576236120020
  C           2.00498388593364      0.29274791304510     -0.03654665342867
  C           1.17890455976784     -0.51727270069896      0.64088933301537
  C           2.74809986008403     -0.22935480520471     -1.19848115118274
  H           2.13732243360996      1.32417911920499      0.24070192386216
  I           0.12928570349719      0.23464007179236      2.32200272197371
  C           0.92717223713730     -5.12876773106394      0.70720460177589
  C           0.38623832174655     -4.01986021977920      0.23501806628338
  C           0.32023650931006     -2.73935252624118      1.00440494005157
  O           1.01310693406271     -1.76574786775906      0.23799623081051
  C           0.99844182322630     -6.40978089342721     -0.06791148115880
  H           1.34038857490622     -5.19954539803093      1.70286659474950
  H          -0.01392241374650     -3.97805221273209     -0.76818707558753
  H           0.78865124650419     -2.84628071815834      1.98995850959623
  H          -0.72723633802579     -2.43132443647545      1.12996620033049
  Br          1.52975968009241     -0.86134697250457     -2.62506795539038
  Br          3.91469541508762      1.12068964813560     -1.95921034951011
  Br          3.86485539931233     -1.78804319534245     -0.70609751689438
  F           0.53286587383868     -7.44230205658415      0.68138988495575
  F           0.24051110103565     -6.37612999856053     -1.18591244125127
  H           2.03103919261960     -6.66229501961529     -0.36708438300068
