21
Coordinates from ORCA-job NEB E -52.309827931560
  C           1.00280053963048      0.37102607405583     -0.01192702878330
  C          -0.36925317182902     -1.11072766930463      1.47690478097206
  C           1.25448589572450      1.54300656966893      0.82878974223407
  H           0.31803417552891     -0.43303072106050      0.69574503393701
  C           0.41142769637681     -2.33725998867096      1.75838565072306
  C           0.23092346154891      0.58150569501026     -1.28565807529610
  C          -1.26668688749589      0.49807576957009     -1.05338027336146
  C          -2.08864848981269     -0.10611563594496     -1.85687010214848
  O          -1.47933117623864     -0.84408823667817      1.78774349305942
  C           0.56712508663416      1.82612692791747     -1.96823435702838
  H           0.51494892160500     -0.20962898497932     -1.96612826855092
  H          -1.63256491656101      0.93198876235361     -0.12385697565709
  H          -1.76781036746725     -0.59059776147371     -2.77368362670260
  H          -3.11649037678462     -0.14804968567965     -1.62406247257522
  Cl          2.78511934421197      2.15293250015633      0.14277483607306
  Cl          0.07181038376187      2.96327641306271      0.80691608419249
  Cl          1.47042302297961      1.06806090981438      2.52400239769840
  Br          0.01498268893323     -3.09931604592749      3.48320358729462
  Br         -0.25428833997920     -3.51414879064798      0.32986242144509
  Br          2.30611695321215     -2.09495514532374      1.51102815655717
  N           1.02687555602071      2.55191904408153     -2.68155500408291
