21
Coordinates from ORCA-job NEB_product E -52.443826385510
  C           0.98222025981905     -0.28422693513287     -1.49103658056679
  C           1.28527865174250     -1.78190548179536     -1.44025039602488
  C           1.81541308215328      0.77845469660068     -0.77210868712087
  H          -0.01707337299618     -0.22368446795640     -1.03804096575347
  C           2.62920638007433     -2.45961532527345     -1.20932150053829
  C           0.76807453092871     -0.00669560923885     -3.01793995572189
  C           0.31514677822876      1.39850676070983     -3.32309508367008
  C          -0.94516769884984      1.69259252868764     -3.57859489163374
  O           0.35755237178170     -2.51916261626064     -1.64091931416237
  C           1.96235457967647     -0.33942251397957     -3.76642978471256
  H          -0.01658699829259     -0.70313244253067     -3.34489576044327
  H           1.08477492048454      2.15443849759029     -3.34830320455451
  H          -1.72429469814657      0.94755546503636     -3.56757966874530
  H          -1.24906177925037      2.69882696338348     -3.80648973394793
  Cl          3.15404255207009      1.46065357874763     -1.72105783256854
  Cl          0.71304557157253      2.14424164010174     -0.37207147691381
  Cl          2.43422011500568      0.15684285577078      0.77775548197592
  Br          2.47042392988588     -3.15018318867675      0.62742745987999
  Br          2.69159946167940     -3.99198922940411     -2.41057145095705
  Br          4.29173271797671     -1.53088439477360     -1.38428381419112
  N           2.88599864445591     -0.63931078160616     -4.36739283962946
