21
Coordinates from ORCA-job NEB_reactant E -52.452705888730
  C           1.71738439434138     -0.02758577883977     -0.28755874538700
  C           1.13257547196703     -1.06566414821646     -0.90140428307038
  C           1.41346761423086      1.42263935877533     -0.35515737653376
  H           2.52330508181244     -0.25302547448499      0.39648378212412
  C           1.60749526204390     -2.46556645017866     -0.56876907657087
  C           1.04924790645168      0.70898141000373     -4.85821715427086
  C           1.06322965274070     -0.09848742383690     -3.79992644946455
  C          -0.07716903150305     -0.20560832511487     -2.83671873049273
  O           0.15949212000952     -1.16286276497811     -1.81422957590582
  C           2.13421369053070      0.79475993200745     -5.75188161738847
  H           0.20579715946303      1.34968617888001     -5.08002226321825
  H           1.92241034567164     -0.72793244662691     -3.60839421761084
  H          -0.96441895008134     -0.60234616834591     -3.34337168489831
  H          -0.33342816507968      0.77212364410834     -2.41825893414955
  Cl          1.98085336989554      2.17301311102247     -1.89213253458143
  Cl         -0.33459635038420      1.75044721870939     -0.16142769228502
  Cl          2.25410847828803      2.25855285615813      0.97449490682941
  Br          2.15056739635603     -2.71316649222516      1.26984202137074
  Br          0.22136263165989     -3.75488766713134     -0.95166241390104
  Br          3.15093096136191     -2.85945147989694     -1.73468626749679
  N           3.01117096022399      0.87788091021118     -6.48490169309860
