22
Coordinates from ORCA-job NEB E -51.880656860300
  C           0.48814066994727      0.63037901726059     -0.62212238720552
  C          -0.15264142102074      1.39744996202520      0.36402389036103
  N          -0.25557930441821      0.51260312914124     -1.88084300743180
  H           1.53586578417183      0.83632939244845     -0.81902902063195
  C           0.65234487533406      2.20913120966296      1.34135707831814
  C           0.33191320023510     -1.15400779407311      0.05548814898574
  C          -1.05031503935772     -1.24386647454042      0.20028679563750
  C          -1.71762912460726     -0.29861086616914      1.07415738560613
  O          -1.39593475548629      1.14334308454413      0.69408968677274
  C           1.03667183735175     -2.09029447785132     -0.89877973866617
  H           0.93445318848954     -0.95382213579700      0.93604341584153
  H          -1.63158956384978     -1.77225405431490     -0.53849570674528
  H          -1.37273411039401     -0.34186007491730      2.10945573015643
  H          -2.80140999097944     -0.33581804800839      1.01494494308067
  O           0.37641594393076      0.78383486275182     -2.87254856587651
  O          -1.42138984747753      0.22531450174477     -1.82480392663121
  Cl          1.30333866480014      1.09352063783946      2.61950152371912
  Cl          2.02774120041621      3.01388919695364      0.57768528977721
  Cl         -0.36932838632474      3.40882663920471      2.14493051719007
  F           0.29499465787752     -2.30349470002686     -2.02810981932456
  H           1.18241069686490     -3.06917158800137     -0.42611009047737
  H           2.00426082449665     -1.69142141987715     -1.22112214245597
