22
Coordinates from ORCA-job NEB_product E -51.908408361460
  C           2.40062866593952     -2.02415427953834      0.21769512386968
  C           1.54890931850354     -1.00871635718248      0.94500370429791
  N           2.52196131494273     -1.57663890313782     -1.21733388579167
  H           3.41855202444377     -2.05888360387533      0.61620507093191
  C           2.21003115649908     -0.43930561398682      2.21678632591574
  C           1.73778625791322     -3.42716622959572      0.32672067968437
  C           0.34443974060097     -3.44614743378773     -0.23494053119458
  C          -0.73548592867902     -3.41661979816247      0.52310735671927
  O           0.46727806261605     -0.65563866072921      0.59127618221604
  C           2.62906840363689     -4.47092021121088     -0.35440653158204
  H           1.70647957594114     -3.67160526114524      1.39389313363835
  H           0.27005408815489     -3.47305909807213     -1.31141578515760
  H          -0.67989801255483     -3.38087776950763      1.59953922528748
  H          -1.72152683607260     -3.42556859775603      0.09512874126067
  O           3.64082352111893     -1.31230951007035     -1.56815484259101
  O           1.52039425300741     -1.47816528480230     -1.86112014008237
  Cl          2.72085404186789     -1.77304272868928      3.27349798563919
  Cl          3.64230248449667      0.48983169721647      1.69183735222187
  Cl          1.09054226482250      0.60898649221537      3.08490808694999
  F           2.75453621225471     -4.20596994624488     -1.69086021989628
  H           2.18138432850708     -5.46545763321926     -0.26664549913741
  H           3.64098506203949     -4.47317126871794      0.06477846680045
