26
Coordinates from ORCA-job NEB E -52.832400680920
  C           0.27610085497899     -0.17725911501714     -0.43889886171780
  C          -0.83896856042318      0.29646386526609     -1.26951097395757
  C           0.10560022312815     -1.67430167337065     -0.10912337237636
  H           1.23712335812133     -0.00574415428416     -0.92806822811466
  C          -0.62991421928751      1.11392280526827     -2.44377623565070
  C           0.22041777460644      0.78644255113737      0.88202576574995
  C          -1.09996592892327      0.62610267190141      1.46939505709928
  C          -2.20140822702799      0.96835186991759      0.64680223292870
  O          -2.03358267136535      0.25601898344805     -0.77996043304576
  C           1.37138186404715      0.62712700711197      1.85874805180831
  H           0.34293377822190      1.78837269050687      0.44434424037270
  H          -1.23891252784181     -0.03374221971509      2.31124717203469
  H          -2.21938976123888      1.99886673744384      0.28828056784608
  H          -3.17672162644752      0.64619242009120      0.99418548428866
  C           1.39880009191151     -2.45302258989043     -0.30658034755694
  H          -0.65400090903304     -2.08700791297110     -0.77685485720882
  H          -0.26942891249526     -1.80869444592534      0.90482165472517
  H           1.75504855011939     -2.34963244595503     -1.32903509167292
  H           1.22336646672655     -3.50704164424119     -0.10940530517646
  H           2.18231581663371     -2.11199136223015      0.36406745241628
  Br          0.82889732642849      0.61532505154085     -3.56503094000993
  Br         -2.22596087995483      1.40851691714825     -3.44872801683500
  Br         -0.07463574588111      3.18741811353810     -1.68779203294361
  Br          1.29564954864138      2.16304510234030      3.10048127703107
  Br          1.32021607611267     -0.97124202139398      2.96532144981306
  Br          3.10503824024207      0.69751279833410      0.96304429015256
