21
Coordinates from ORCA-job NEB_product E -44.644249912020
  C           3.66172301966818     -0.11138663580713      1.89192395498377
  C           2.62707402523085      0.88207330439095      2.39657733939889
  I           3.17765764286674     -0.58193873343389     -0.15166953385929
  H           4.62101235027378      0.40908714858445      1.84317536267738
  O           2.39888494562933      1.83354801102918      1.50432973880317
  C           3.75176140095646     -1.32158629352193      2.82727377932942
  C           2.76276046577458     -2.40031065339795      2.47205589221800
  C           1.57143601415626     -2.49003693847946      3.03085747589523
  O           2.11275052841218      0.82489838627587      3.48096009126741
  C           5.16574510150130     -1.88892769212942      2.91085808747368
  H           3.50073656259487     -0.94109533005711      3.82747897661382
  H           3.07816153462520     -3.09386186800099      1.70562979810865
  H           1.24990235769234     -1.79973782366136      3.79339324461408
  H           0.86974033885386     -3.25106258948255      2.73751746664100
  C           1.46599319971282      2.84270755788796      1.86945610992565
  H           1.39403449526672      3.50838101104537      1.01374574809080
  H           1.81908917431778      3.38157852751998      2.75058552961574
  H           0.49558319885210      2.39567146243105      2.09211111989597
  Cl          6.30206403069873     -0.65424874300032      3.52700701640072
  Cl          5.17672153906706     -3.25883411198045      4.05007423388125
  Cl          5.76526807384885     -2.45681799621226      1.34255856802468
