21
Coordinates from ORCA-job NEB_reactant E -44.608053723690
  C           2.23883464316904     -0.65244134194349      0.41092547311991
  C           1.91206628147558      0.30801742925896      1.27854606272129
  I           1.98959662523931     -2.72377039084710      0.58529285055069
  H           2.58058484754501     -0.34945170191074     -0.56075962911419
  O           2.03923594575873      1.57914936976759      0.81312282291674
  C           4.04474559575547     -2.05778297575714      3.51592926784440
  C           3.41231828871955     -0.90036522225030      3.40982518337604
  C           1.92245538487139     -0.76114896874793      3.43366141717997
  O           1.46571929254774      0.25427851313927      2.55693361392777
  C           5.51775937280740     -2.24042232673508      3.49307209287736
  H           3.50022603614735     -2.98572228838950      3.62422009608163
  H           3.95969000248260      0.02482196593400      3.29208095859079
  H           1.60225703914204     -0.41129660848600      4.42234207595818
  H           1.42932466017015     -1.71686227866839      3.23177479920561
  C           1.79550386293795      2.64261746532348      1.71547239500609
  H           1.97341647681040      3.54812460095798      1.13960775913178
  H           2.47674477783575      2.60683612616424      2.56945357104128
  H           0.76504002463244      2.62625642800086      2.07694984750823
  Cl          6.03890799593812     -3.02588050137691      5.01463490264594
  Cl          5.94845817616618     -3.31812853579474      2.13177338878664
  Cl          6.42241466984781     -0.73222875763905      3.31374105064384
