18
Coordinates from ORCA-job NEB E -30.645845449170
  C           0.22557770770183      0.89197706498933     -0.00353545450039
  C           0.07844735632472      0.73438005984237      1.39104409874683
  C           1.52247780828779      0.51378464869660     -0.68478355049952
  H          -0.14547102861787      1.84436353330297     -0.38294207421537
  C          -0.38715476477033      1.75529379878986      2.22215826154056
  C          -0.83259248655473     -0.99849223237073     -1.67563144320216
  C          -0.91253466117093     -0.52691262437653     -0.38271018965089
  C          -0.33722045364116     -1.39620030968405      0.73698282388828
  O          -0.00713143266083     -0.55358752911564      1.82786470477988
  F          -1.68052199159796     -0.53313540592539     -2.61017662479205
  H          -0.01668747303121     -1.55808241231770     -2.10347394045411
  H          -1.87782855691470     -0.08581187289250     -0.14287497775317
  H           0.54876559668829     -1.93376649530569      0.38117387207379
  H          -1.06246498291441     -2.12843846533728      1.10494168294829
  H           1.40365552377472      0.56138145373347     -1.76480225066064
  H           1.87890547892306     -0.47396433822269     -0.40775329497068
  H           2.28294201770897      1.23859792241855     -0.39348147195572
  N          -0.68116365753522      2.64861320377506      2.88799982867707
