18
Coordinates from ORCA-job NEB_product E -30.688275328070
  C           1.20259242517856     -1.41376672968329     -0.29609005940956
  C           2.42947797191327     -1.41237770307136      0.60281359707887
  C           1.47910699206855     -0.63145326179844     -1.57540964529192
  H           0.38273470438389     -0.95314187390817      0.26912864547774
  C           2.20830901146847     -2.14433321563158      1.84363175206459
  C           0.77420248146920     -2.87250997879078     -0.58638361019388
  C          -0.45168569447845     -2.92522742280549     -1.44885624463820
  C          -1.68012208778529     -2.87669763665561     -0.97112634626532
  O           3.46761045935006     -0.86227584708021      0.35685875332292
  F           1.81328880210891     -3.51640902305101     -1.22600873747365
  H           0.61559146745325     -3.41312374098085      0.35715766535180
  H          -0.25439324718563     -3.00306203804997     -2.50792448034573
  H          -1.87769815052915     -2.80985051413246      0.08650382443131
  H          -2.53862669408478     -2.90240125324519     -1.61845691742450
  H           0.56501174447348     -0.50989302547552     -2.15023969136066
  H           2.21519935514783     -1.15749458673741     -2.17895576388967
  H           1.87799853226106      0.35007247205713     -1.33118440092769
  N           2.01420192678675     -2.71595462095977      2.81604165949356
