18
Coordinates from ORCA-job NEB_reactant E -30.688763027040
  C           1.82397364497770      0.02452093350366      0.02114534380567
  C           1.17088333142468     -1.11819035444192      0.28613335782113
  C           2.15798777128749      0.49210874816580     -1.34978276149309
  H           2.12448980314882      0.64451980577151      0.85255700838350
  C           0.90414839604286     -1.46037539042882      1.63600104713430
  C           0.05196880966261     -5.13311990996891     -1.77715292062540
  C          -0.29193951380183     -3.87960326886071     -1.55705208193279
  C           0.08265570623021     -3.13560401286485     -0.31734259452445
  O           0.75778611201935     -1.95551225471732     -0.71456022102857
  F          -0.31077025166950     -5.77737733714832     -2.89353744749772
  H           0.61850773060380     -5.76696896942168     -1.10976713857034
  H          -0.85401932940012     -3.32749752071975     -2.29485228579126
  H           0.72447699133425     -3.75119170346258      0.32737497251555
  H          -0.82623522925393     -2.87462922420571      0.24738945705425
  H           1.81710502836896     -0.22554497410862     -2.08999340896084
  H           3.23506981900451      0.62684446027882     -1.44704557420650
  H           1.68871427520958      1.45725859080734     -1.54061823310209
  N           0.67799690481053     -1.71893761817793      2.73100348101866
