18
Coordinates from ORCA-job NEB_product E -30.534483266190
  C           3.01282661140785      1.18742098801252     -0.95466873205404
  C           1.83670070135127      0.47622698390827     -1.57998203197446
  C           2.97888496033587      1.03460978646553      0.48396518462697
  H           3.92221279877571      0.68573620820612     -1.31341609812993
  Cl          1.69560823302335     -1.18495823145402     -0.99112228070487
  C           3.05020488358831      2.68396827635215     -1.35778197254042
  C           1.89393078642225      3.41893195384561     -0.74253319470513
  C           0.94043077036953      4.00724202508689     -1.43753058907003
  O           1.07787977648430      0.90222588213466     -2.37955969771670
  C           4.37590786871622      3.30499756772392     -0.91694027324424
  H           2.96557295535319      2.73093242167037     -2.44788086064795
  H           1.89119642576681      3.44652003687197      0.33943282062348
  H           0.92570317569626      3.98211356803929     -2.51441091474119
  H           0.13104184954275      4.53139032375250     -0.95980842095191
  N           2.96605584386121      0.94986432071941      1.62231103576653
  H           5.21721407310037      2.80184211915530     -1.38957018398657
  H           4.49012680612164      3.23554022761317      0.16299751987138
  H           4.40080148008311      4.35459554189634     -1.19870131042092
