18
Coordinates from ORCA-job NEB_reactant E -30.521219288970
  C           1.59757726436041     -0.04361144011868     -0.15564722551518
  C           1.45686415096960      0.28451895302017     -1.45164377368209
  C           1.67829334365055      0.83448001591841      0.93157510152180
  H           1.65906880349613     -1.08926853727583      0.10699795087072
  Cl          1.38193067300241     -0.98710249582394     -2.62157056901318
  C           3.54412610585730      4.00140110210170     -1.69082494571993
  C           2.89219416152451      3.02739893431768     -1.07676250895800
  C           1.46014374279586      2.68668544913310     -1.35530498027285
  O           1.33239353752342      1.44997181718936     -2.06963736349658
  C           4.96516603821416      4.36130677743805     -1.43076967371047
  H           3.03637618296628      4.60710385452177     -2.43108455333514
  H           3.38742182814358      2.41603285433526     -0.33570931480135
  H           1.01376529954031      3.42232475939075     -2.02822568932495
  H           0.88099354523726      2.63860831012829     -0.42746399680996
  N           1.76245714619656      1.49451554221215      1.86864671825568
  H           5.40228666687732      3.71235696743672     -0.67692889107233
  H           5.03136175157692      5.39392398594422     -1.09033816359950
  H           5.54467975806742      4.28095315013081     -2.34980812133667
