26
Coordinates from ORCA-job NEB E -52.008098783490
  C           0.60568990760857     -1.68819345232889      0.71479595688812
  C           0.79445689738074     -0.54059528134201     -0.24754883550228
  C          -0.56844533910276     -2.23415534089954      0.98972266572800
  H           1.51187184959951     -2.03630730344256      1.18869824718596
  C           1.32228270057253     -1.07429060103971     -1.58722979518684
  C           0.21609353915402      3.14437278873929     -0.22266311628240
  C           0.00373891583929      2.22488904131737      0.70593303736613
  C          -0.85749715499495      1.00469317568297      0.50201991633710
  O          -0.38902721382552      0.16678449018535     -0.54650904836952
  C          -0.45068325525029      3.14232020625684     -1.56825137967059
  H           0.86389703532499      3.98962850439684     -0.04652181298956
  H           0.47941162523920      2.32864494693342      1.67086949669962
  H          -1.85938425181404      1.30366303424919      0.18489361474623
  H          -0.93257836893765      0.43414694560372      1.43499638573215
  C          -0.78438574618901     -3.36067231647769      1.93568561419084
  H          -1.45250931549367     -1.86053879129496      0.48818630111708
  H           1.55746847220080      0.15057777166697      0.14265015787215
  H          -1.51596329500939     -3.08102794835071      2.69264165971229
  H           0.14310169093637     -3.64919757148600      2.42317107271534
  H          -1.18358963432777     -4.21877513334955      1.39668238210701
  Cl          2.85105619452645     -1.93445537822841     -1.33782803296614
  Cl          0.14865132558323     -2.17481294020032     -2.31172693210787
  Cl          1.61826759625803      0.26691614297099     -2.71022214843413
  F          -1.80570310613129      3.19664047623935     -1.43931125712908
  F          -0.10150497790704      4.24334192370189     -2.27580804373430
  H          -0.21471609124034      2.25640261049616     -2.17732610602533
