26
Coordinates from ORCA-job NEB_product E -52.023579160240
  C           2.30922850966100      1.75441266171235     -0.21872192902577
  C           1.49414561890970      1.34793388594789     -1.41781291314744
  C           1.96833262078306      0.72500336183187      0.88491268794555
  H           3.37220331096994      1.66439555946464     -0.45306520744843
  C           2.23227469579161      0.48213661491794     -2.45962675092993
  C           1.98411945879363      3.23210029676016      0.14394425363201
  C           1.22844620625869      3.41770755618438      1.43029219646063
  C          -0.05304963550994      3.72763640368669      1.47729109577625
  O           0.36012944713392      1.67398072213386     -1.61794304340118
  C           3.27039867718996      4.05715999263827      0.19501105128431
  H           1.38191398047705      3.65090832827366     -0.66952793077578
  H           1.80543255980850      3.29438404220672      2.33611698183606
  H          -0.63929339233586      3.84585708549605      0.58126041202122
  H          -0.56986759110281      3.85889152473348      2.41217870096840
  C           3.10681588352461      0.55879995276036      1.88233784646211
  H           1.76930211076310     -0.24171599631764      0.41825275257154
  H           1.05327042476267      1.03873384960289      1.38791854175926
  H           3.98764242848841      0.15849748794013      1.38659383890285
  H           2.81091370121913     -0.13347324131552      2.66638736659509
  H           3.37582636717199      1.50579447365181      2.33955638951051
  Cl          3.14935281994573      1.69194166373621     -3.41132259682632
  Cl          3.36336632783297     -0.68516204184524     -1.77196408290628
  Cl          1.08689179343256     -0.35781102151690     -3.50863646982310
  F           4.14183934172425      3.57433042699841      1.11318415727564
  F           3.92178884248403      4.01501993953154     -0.99291776015239
  H           3.08307549182210      5.11453647078601      0.43790041143516
