20
Coordinates from ORCA-job NEB E -33.004493384570
  C          -0.19872364117883     -1.49447261637314     -0.23568399780887
  C          -0.72204658702769     -0.39585469864312     -0.89677947777468
  Br         -1.29053086964797     -2.46129186791398      0.97331112473921
  H           0.49982711760529     -2.13190422235605     -0.75782034449177
  O          -0.04418871378638     -0.08235994889549     -2.04775674582102
  C           1.02399377241658     -0.33805218113968      1.20853952959142
  C          -0.01709548538600      0.44137571744433      1.70204377582363
  C          -0.64257511866017      1.39026645466863      0.89651432922340
  O          -1.52852508592989      0.42234703098025     -0.36665894829171
  N           1.62920917333455     -1.28082046267270      1.98757483491724
  H           1.64152912761503      0.04544709160902      0.40512243132004
  H          -0.54607552285625      0.07329042460949      2.56994874126072
  H          -0.04157568028580      1.95084229335775      0.19348733764290
  H          -1.49055484513493      1.92641974452474      1.29172259598658
  C          -0.34600330820970      1.15820666797108     -2.65934351772054
  H          -1.32395986651329      1.51861720188169     -2.33374947684417
  H          -0.34659518206111      0.99204365373061     -3.73584947064753
  H           0.41941322876497      1.89684743276139     -2.40493415799680
  H           1.03593631825709     -1.73329064403580      2.66860252675655
  H           2.28854116868450     -1.89765707150905      1.54170891013539
