20
Coordinates from ORCA-job NEB_product E -33.047975385450
  C           2.63341426253241      0.21510466820597      1.11522375016203
  C           1.86373864390862      1.17393883477781      0.22853212869947
  Br          1.35510926954571     -0.82425272060002      2.13577525927616
  H           3.20648508030948     -0.49326271234101      0.51409927836234
  O           2.69415265861742      1.71018074423190     -0.66849315809613
  C           3.59448578373285      0.99594524834412      2.03022162580625
  C           2.83195650748277      1.99170447969403      2.86605527402690
  C           2.96050331614984      3.29943989814665      2.75136041635203
  O           0.69781684838712      1.42649087391753      0.32914284852464
  N           4.38118656292373      0.04875203680019      2.80063720410555
  H           4.28642113988671      1.52968273326859      1.36435812483884
  H           2.16237469265860      1.56139793621041      3.59969344310137
  H           3.62557408541809      3.74295963003311      2.02705960072864
  H           2.40652424862806      3.98204700329017      3.37235049944125
  C           2.15917979993629      2.67357934838706     -1.57160454753040
  H           2.30243074437481      2.30430103058679     -2.58677687581668
  H           2.70479982061041      3.60698227333437     -1.43502336222028
  H           1.09741770846988      2.82393631414819     -1.37034817702452
  H           3.77996795219073     -0.48954172346188      3.41867011055943
  H           5.06006087423647      0.53761410302603      3.37216655670312
