20
Coordinates from ORCA-job NEB_reactant E -33.025708405370
  C           1.92220920826943     -0.14787792745856      0.53127960594563
  C           1.98653298837000      1.16169347168822      0.28525803453475
  Br          1.23418710985869     -0.81243094398972      2.14375451654441
  H           2.25592743849592     -0.88849185956962     -0.17120829797398
  O           2.57260030008519      1.55452072232477     -0.88309322817987
  C           4.18332711398831      1.26671662860120      2.81365177550207
  C           3.03725360163579      1.93201104585833      2.96786141099751
  C           2.47001772201700      2.81268343842384      1.91006085641700
  O           1.48664328936328      2.10561936416198      1.10811689415012
  N           4.74783395844505      0.44734103089714      3.76128996143291
  H           4.79238285233971      1.41473203292047      1.92970109970576
  H           2.42282841580509      1.76398630747368      3.83909101815927
  H           3.26203632460685      3.19753589180315      1.25766545270469
  H           1.90212252153553      3.64334588749443      2.33156852808575
  C           2.23615983021624      2.83843623328587     -1.38216801152981
  H           2.28488086220435      2.76503845913689     -2.46762887693884
  H           2.95336735170878      3.58987122804089     -1.03846108822157
  H           1.23157708206768      3.13252402195540     -1.07331754194090
  H           4.11479149586454      0.12739137148196      4.47900687753834
  H           5.37532053312256     -0.26384640453034      3.42367101306676
