32
Coordinates from ORCA-job P E -37.806889819050
  C          -1.44057432961156      0.18097947837870     -2.55576972129075
  C          -0.32340213851561     -1.83058568095856     -1.07134452616843
  C          -1.72646907908866     -2.00032902306901     -1.55965462181525
  C          -2.26409136411463     -1.03924199037021     -2.29173598619298
  C          -0.84285931129202      0.66480704577054     -1.21728028894623
  C          -0.12689309968228     -0.44445739802427     -0.41829283608140
  H          -2.25979969900753     -2.90446293586164     -1.31106831830859
  H          -3.26549927066984     -1.05613330406074     -2.68645463381030
  O          -2.26248489188398      1.15585828754470     -3.16744543452127
  H          -0.07694340349214     -2.61298500038032     -0.35561277565911
  H          -0.60998984479237     -0.07498071364620     -3.24065565203909
  H           0.35323571298046     -1.92474601250663     -1.92520733300823
  H          -1.67469106037964      1.06285611507240     -0.63330966377749
  H          -0.61183914949271     -0.50160530831300      0.56257517654274
  H          -0.16441532059307      1.49076340683271     -1.42243370617792
  C           1.36732522108739     -0.12601002715610     -0.13816381961867
  C          -1.57770270580267      2.23444149181892     -3.74383414969780
  H          -2.31494141934953      2.79559109970432     -4.31582811132346
  H          -0.78368239403847      1.88768976756708     -4.41838894702568
  H          -1.13520104541222      2.89642521712591     -2.98996633998991
  C           1.45657927075093      1.12580533772827      0.74448266368392
  C           2.01187391065240     -1.28119416676358      0.63926092367711
  C           2.17368370589729      0.10216750927051     -1.41944525338142
  H           0.92621516809404      0.96764564739671      1.68097894628597
  H           1.02878543828070      1.99695285557240      0.25650415815227
  H           2.49622032134911      1.34830611759079      0.97540233611365
  H           1.41017701676804     -1.54564419296850      1.50607234605115
  H           2.99847793686782     -0.98563597897499      0.99013818313606
  H           2.13144980854025     -2.16236661661528      0.01529741484288
  H           1.79241826976968      0.94342273949953     -1.99186094081359
  H           2.15910387648549     -0.77931366399866     -2.05547293133638
  H           3.21049386969532      0.31328989679424     -1.16592615750179
