32
Coordinates from ORCA-job R E -37.727122793310
  C          -1.65172456180092     -0.41401051272682     -2.97949936303455
  C          -0.52819776940514     -3.09640494781969     -2.13270579352217
  C          -1.79657250879232     -2.70205672479867     -2.04745644445159
  C          -2.34924222442260     -1.43376913909589     -2.46870062451180
  C          -0.74128070273828      1.74557506066525      0.08509496524788
  C          -0.05839494845956      0.63872375646171     -0.13825115162522
  H          -2.51724108026795     -3.38015747665610     -1.60812336692353
  H          -3.41320534704999     -1.29972847161893     -2.33953874790504
  O          -2.24635411905877      0.74799570180300     -3.33953113207134
  H          -0.21716191262325     -4.06237196997842     -1.77397268368060
  H          -0.58081112036412     -0.46618558384919     -3.13795359664033
  H           0.24345334187769     -2.48346368656566     -2.56596931561049
  H          -1.79915415012489      1.79656743669473     -0.11433879219180
  H          -0.57346588465892     -0.22781826146340     -0.53384505675934
  H          -0.29346305602318      2.64303460648028      0.47695858461827
  C           1.41871638814103      0.41959620916783      0.06899009717769
  C          -1.37284611116528      1.79995318348826     -3.67479803579993
  H          -1.99814852184980      2.62755918938500     -4.00474375970233
  H          -0.69368779154379      1.51277389719591     -4.48470119803366
  H          -0.78467046517224      2.11104409668374     -2.80437689196109
  C           2.05633943147317      1.49512207310050      0.94858921358299
  C           1.60890336765809     -0.95597447540381      0.71862547042929
  C           2.09664402556678      0.42179858423437     -1.30894352959696
  H           1.54528865423195      1.55602289079770      1.90653864850296
  H           2.01269541548046      2.46852062276624      0.46616567471046
  H           3.10172216863298      1.25482515645187      1.13054757453535
  H           1.11267375137522     -0.99010535603331      1.68594580350991
  H           2.66625874715937     -1.16681323325022      0.86443546517800
  H           1.18465540051801     -1.73255826515215      0.08534712807778
  H           1.94478360890564      1.37750429874857     -1.80719945040469
  H           1.68658657306619     -0.36594785028753     -1.93686407440244
  H           3.16633140143442      0.25267919057481     -1.20436561674167
