18
Coordinates from ORCA-job NEB E -33.600024405010
  C           0.22548356755724      0.86845410806808      0.42508885883221
  C           0.31963055584865      0.10175274378895      1.58846918976084
  O           1.29121565191824      0.90840371395045     -0.41158619218330
  H          -0.38206839994845      1.76986465831407      0.46224897930133
  Br         -1.12449927875021      0.55608874885903      2.86687916560054
  C          -1.01751523167396     -0.48977354984805     -0.60720297000613
  C          -1.14806520943613     -1.61991580456492      0.18745122677593
  C           0.01365200714090     -2.26890010370691      0.60667928203305
  O           0.80494245726760     -1.03282637834310      1.69124282139227
  Cl         -2.43000788569138      0.42830450693253     -1.01109896665184
  H          -0.27949771302767     -0.49420479299525     -1.39921512171383
  H          -2.05139622538005     -1.73704556500201      0.77154113597064
  H           0.85730121489468     -2.31571460205741     -0.06682949934698
  H          -0.06971403491608     -3.09445920340704      1.29628305829872
  C           1.24451871357008      1.91345715309554     -1.40437023307985
  H           2.19474676351087      1.86174272017798     -1.93142916043050
  H           1.12699238914151      2.90428452127709     -0.95612646367260
  H           0.42428065797419      1.74048712546097     -2.10802511088049
