18
Coordinates from ORCA-job NEB_product E -33.645318968650
  C           0.60190336578668     -0.77584312940696     -1.15064887933570
  C           1.49505499891617     -1.07782318896059      0.03892140810619
  O           1.35524010570979     -0.27188395022729     -2.21170528572098
  H          -0.19764788481171     -0.08017992285643     -0.84974326291689
  Br          0.56923644207010     -0.80239024908538      1.74817548967188
  C          -0.00745687731649     -2.11604338302590     -1.61030378653883
  C          -0.69922677288110     -2.86274678153937     -0.52043433180181
  C          -0.36557840725275     -4.08687805462527     -0.15469803578533
  O           2.61299473849397     -1.44614657156746      0.04203164317336
  Cl         -1.19729742805325     -1.74805608940019     -2.89972540292198
  H           0.78529618288828     -2.70728636093489     -2.07556471066198
  H          -1.52392416797686     -2.34312277097064     -0.05279241639425
  H           0.44798021020131     -4.61880891697238     -0.62005060347289
  H          -0.89034383633481     -4.60046973897162      0.63132298862163
  C           1.76081282904584      1.07062904461069     -2.05326178119808
  H           2.26354919030290      1.34019964273945     -2.97877619733491
  H           2.45608869958044      1.18610331338295     -1.21517770591945
  H           0.89661861163149      1.72644710781127     -1.89916912956998
