27
Coordinates from ORCA-job NEB_product E -48.195667640710
  C           2.46591736730235      1.11921402911705     -0.19744351718043
  C           1.32171070694502      0.36440551750833     -0.90280841532112
  O           2.23949204729957      1.28695656332491      1.17624564365216
  H           3.41454850868256      0.57888420225989     -0.36901699371107
  C           1.74015942645938     -0.36793163170460     -2.15712894387021
  C           2.55272121943257      2.52396442963890     -0.83684990403339
  C           1.30468811714861      3.31667906323868     -0.56626995106999
  C           0.55652793531444      3.83888781854286     -1.51759088558367
  O           0.20371414914240      0.36150972536199     -0.46706216397539
  C           3.76598030842964      3.27482215987093     -0.29120377343319
  H           2.72110935113713      2.42542532223990     -1.91464533344033
  H           1.05563771518223      3.41423158310501      0.47915934463431
  H           0.80200871381607      3.73584080753654     -2.56245956153094
  H          -0.33444562475201      4.39525325353555     -1.28793137653519
  C           2.32403798634456      0.09769144877750      1.92308953253789
  H           3.30183357025118     -0.38196849553245      1.78890115890148
  H           1.53434319134583     -0.60878630572489      1.64862798162045
  H           2.20254635440683      0.39078722669895      2.96309281958862
  C           0.55062960538019     -0.68906024932008     -3.05296167938857
  H           2.22118594228161     -1.29559640060248     -1.83099735517286
  H           2.49276841181287      0.21354854283082     -2.69253873889312
  H          -0.19958609387833     -1.23834151228449     -2.49086291714556
  H           0.86452465299304     -1.28753509807606     -3.90381213409351
  H           0.09506687963071      0.22843715699337     -3.41664686128870
  F           3.67198610851461      3.63064056406384      0.98633138827603
  F           4.89653600474424      2.55254681866820     -0.41172159946157
  F           3.97865744463270      4.40469345993180     -0.98929576408212
