27
Coordinates from ORCA-job NEB_reactant E -48.192342748100
  C           1.56759242168394      0.27865529889972     -0.29575717465563
  C           1.34443619231036      0.60124938227065     -1.56894234475371
  O           1.31444442080706      1.07289971092155      0.80341263866094
  H           1.96902745614760     -0.70270012218045     -0.07290444437761
  C           1.57058533845219     -0.39621348241814     -2.67417877469673
  C           3.01095931429588      3.18473169909905     -0.90015700743175
  C           1.76383902164567      3.41719948072299     -0.52065435922064
  C           0.56235683710339      2.82574814636956     -1.18749370492593
  O           0.84624543231595      1.77676298445070     -2.07641359097433
  C           4.19429967463074      3.74504442941285     -0.18736859601215
  H           3.26281383378644      2.54853012092199     -1.73473322860475
  H           1.55297757558438      4.06094840964326      0.32125310789290
  H           0.07579855367855      3.59511648681532     -1.79936524299347
  H          -0.14318422510952      2.50035618277730     -0.41341396796198
  C           2.16639815827126      0.82859720852524      1.89783471557744
  H           3.20036310344851      1.10706602054995      1.66895723386614
  H           2.13863428510171     -0.22653506890858      2.19144295125942
  H           1.79824838731825      1.44334894192749      2.71711520232837
  C           0.27244189542642     -1.11747460454910     -3.03773062457116
  H           2.32408492511939     -1.12148108167632     -2.36764036766146
  H           1.93556802198056      0.14364867904282     -3.54891789141816
  H          -0.10531900297649     -1.67058400611956     -2.18133543550877
  H           0.44316009818379     -1.81321505200664     -3.85548709272083
  H          -0.48048880544821     -0.39675043183844     -3.34488313442036
  F           3.88159220450482      4.62665080278536      0.77270637574007
  F           4.92075003944989      2.77794706531663      0.41582333511272
  F           5.04377484228749      4.37195279924478     -1.02056857752859
