15
Coordinates from ORCA-job NEB_reactant E -26.894139306730
  C           2.01876441651239      0.01618623762971      0.13525675487600
  C           1.30100049119169      0.39575339273655      1.18656538048580
  Cl          2.36421745702961     -1.63576529771912     -0.19861762617258
  H           2.42866627546886      0.71786249611003     -0.56802809887352
  H           1.11215582267814      1.45179196502684      1.35050568373702
  C          -0.11197758176875     -1.09820425873520      5.30652429306106
  C          -0.44182178361211     -1.00864951811251      4.02555311183977
  C           0.01258349701671      0.09725877348746      3.13068839493798
  O           0.78492301943386     -0.47087839189620      2.08227504123840
  O          -0.49051294071538     -2.07478620742518      6.15506397060688
  H           0.49097841395922     -0.35474937516286      5.80833560215587
  H          -1.03656592949639     -1.77627220276193      3.55039428809955
  H           0.61466494640913      0.82252143073539      3.69380444758139
  H          -0.85517495056200      0.61959834626472      2.69843984504395
  H          -1.00750115354498     -2.74096739017771      5.68343891138244
