15
Coordinates from ORCA-job NEB_product E -26.889112353210
  C           1.49405873274754     -0.89666102327597      2.19377506008844
  C           1.17410867002004      0.28357181544151      1.31862094439989
  Cl          0.84206525057444     -2.40542652793362      1.48871115533648
  H           2.57916722437770     -1.01933494262181      2.26603686519034
  H           1.64328239266412      1.21289790550592      1.69990500083348
  C           0.91836256309832     -0.70136082995636      3.62607265469215
  C          -0.57548484344711     -0.52749578838729      3.55284745427015
  C          -1.18930535948609      0.62995383575282      3.70126559606575
  O           0.49913978685689      0.27163585473134      0.33513728084933
  O           1.30323333574226     -1.75749000099479      4.45393693473110
  H           1.38257881746223      0.19413735647920      4.05491011846918
  H          -1.13218428914022     -1.43404822302248      3.36053342373819
  H          -0.64849424360538      1.54120959688719      3.89804378707981
  H          -2.25954720055665      0.71538202107451      3.63173161067513
  H           0.94841916269190     -2.57847104968016      4.08407211358059
