20
Coordinates from ORCA-job NEB E -45.288609615160
  C           1.04667004876032      0.46768425123651      0.39927416212471
  C           0.41152149484847      0.71626432702408      1.61296477573592
  C           0.91347482070733      1.54885632913565     -0.66157484673764
  H           2.04694546838951      0.04574424504561      0.41812305623466
  I           1.13862067624757     -0.36609407934702      3.32604145638206
  C          -0.14033250679419     -0.99146943808312     -0.20935422001536
  C          -1.40829347690127     -0.42640414748223     -0.09864616047918
  C          -1.84789288018537     -0.00496321366261      1.19287549033944
  O          -0.79636428593286      1.11916635001749      1.66560712424485
  C           0.33220338697783     -1.43701842041791     -1.57507098328018
  H           0.18601201329905     -1.69054130681816      0.55578247043092
  H          -1.84831094692033      0.03608524278055     -0.96991514382031
  H          -1.74375839528659     -0.73083536036346      1.99837521091719
  H          -2.79241023724799      0.52389606532319      1.23263925932909
  F           1.32680872847426      2.73416785052147     -0.14130285322701
  F           1.73123878253068      1.30161422354498     -1.69918543953275
  H          -0.10837544019351      1.69726580803621     -1.04066201279684
  F          -0.04121489539372     -0.57519553350977     -2.54634300196946
  F           1.67718859666423     -1.54150004595423     -1.62427245012774
  H          -0.08373095204342     -2.42672314702725     -1.83535589375237
