20
Coordinates from ORCA-job NEB E -50.438908790000
  C           0.87325479500607      0.48809425651532     -0.29404009506286
  C          -0.06057149387987      0.82705740197802      0.68758522055099
  C           0.70709806702081      1.04137915645270     -1.69022852359109
  H           1.92274224843820      0.51875015899791     -0.01286438810311
  C           0.39832438891948      0.76414251215211      2.13721590852981
  C           0.42759874524638     -1.40634290540537     -0.56430685564236
  C          -0.93395270391708     -1.32930255740339     -0.79604512088431
  C          -1.78154346933130     -0.80430945771008      0.24645589250665
  O          -1.34409300684789      0.67901028238929      0.46469208080882
  H           1.07327557116935     -1.71185220203428     -1.37563260645145
  H           0.77337965303071     -1.72154476290731      0.41094746205459
  H          -1.30115619172374     -1.28965000328225     -1.81075220271214
  H          -1.64567271547444     -1.25807994643616      1.22773369298705
  H          -2.83013993210475     -0.70230771070190     -0.01162017292518
  F           1.44558296595355      0.37170847999286     -2.58993487867559
  F          -0.53977884371097      1.05347785728431     -2.15546977369784
  F           1.14308160596759      2.31080268909343     -1.72567314831345
  F          -0.43344952370902      1.39144980799871      2.96339563640777
  F           0.48819525250836     -0.51470791834535      2.58609177095808
  F           1.61782458743857      1.29222486137144      2.30245010125563
