20
Coordinates from ORCA-job NEB_reactant E -50.463182323430
  C           1.84538473425090      0.02109883223158      0.07374986446720
  C           1.24090422758907     -1.02417297751310      0.65581184564090
  C           1.99941355240230      0.08138322267811     -1.41270757580591
  H           2.24716315007111      0.84773960390688      0.63029834454263
  C           1.10898512689365     -1.03659933710578      2.17359856988037
  C          -0.13333302581176     -5.38821406208282     -0.50937178509363
  C          -0.25707517888043     -4.07918043472969     -0.60414573520562
  C           0.05223754377772     -3.12857506368302      0.51234394758166
  O           0.77633781597086     -2.03716793148481     -0.06595509103735
  H          -0.38520467958469     -6.03861153970922     -1.32801061612157
  H           0.21246753298821     -5.86451244282557      0.39333711146453
  H          -0.59636635025058     -3.60198299601937     -1.51142095047157
  H           0.64330341841566     -3.62474450709313      1.28860549571050
  H          -0.88445220763771     -2.75694700873219      0.94954237017930
  F           2.76691762152114     -0.90714657534639     -1.90018037680365
  F           0.82759542369648      0.00046499686653     -2.06347448883670
  F           2.56984195162325      1.23013771828192     -1.79553322216345
  F          -0.16976390280646     -1.10584401038719      2.57363293312846
  F           1.74143531014361     -2.08170880504890      2.72793033201185
  F           1.62320793562767      0.05978331779618      2.73044902693205
