19
Coordinates from ORCA-job NEB E -32.370994286390
  C           1.16590459913715     -0.19532682706972      0.34771516871070
  C           0.89920249394176     -1.54250799810648      0.66703877083249
  N           0.84769049701019      0.75816404541195      1.39474846669826
  H           2.15205626416170      0.02108595283575     -0.05388457896495
  H           1.61127815982710     -2.31567464787965      0.39187597907883
  C          -0.12715996239040      0.23140852810485     -0.90304629239084
  C          -1.30541790742385     -0.07052105492655     -0.20398160058620
  C          -1.49246805891690     -1.41858716726733      0.28567023842933
  O          -0.27563212111654     -1.93672751516910      1.06660164902406
  C           0.10323611887751      1.65794553052304     -1.33937011643792
  H           0.19145777222716     -0.48733980989061     -1.65391091302763
  H          -1.86318310241325      0.72405715916984      0.26377298805616
  H          -1.55907595233504     -2.17570833151936     -0.49820275875613
  H          -2.31399208843089     -1.51866774032492      0.98931173807821
  O           1.72788222735574      1.54754164940623      1.67618679141787
  O          -0.22523839030325      0.66888790647110      1.94550724944254
  H          -0.17970544949503      2.35872713388539     -0.55776919533702
  H          -0.50246394275808      1.86730280163904     -2.21915209154472
  H           1.14562884304490      1.82594038470652     -1.59911149272305
