19
Coordinates from ORCA-job NEB_reactant E -32.407419872610
  C           2.20739167923888      0.67361080297977     -0.82207679422697
  C           1.24550287469259      0.48599082205475     -1.74394192820023
  N           1.97922876814266      0.70686560227068      0.57243675725148
  H           3.23618692011203      0.81531096611503     -1.10591634149289
  H           1.53235029241072      0.48895405465992     -2.79450212679374
  C          -0.73010411119728      1.38507924785780     -4.72156192778305
  C          -0.97187495489524      1.37522125434107     -3.42064854693707
  C          -0.92190372538679      0.14676282485229     -2.56354730920404
  O          -0.02708294484944      0.29809421715418     -1.46349366929406
  C          -0.78036984463921      2.59919217772433     -5.58227526144827
  H          -0.49478217608162      0.45985623675114     -5.23431954799151
  H          -1.20659767900573      2.28902695319602     -2.89243797277588
  H          -0.63609671488492     -0.72999391233895     -3.15805326499686
  H          -1.89273499776852     -0.03743546384938     -2.09498686582333
  O           2.95896692784972      0.89063629120868      1.27431740280369
  O           0.85133190714363      0.55695745125136      0.99548022622123
  H          -1.01076950003832      3.48553347782195     -4.99764578056168
  H          -1.53990005476825      2.47687565952342     -6.35358746554508
  H           0.17555733392508      2.74286133642593     -6.08463958320171
