19
Coordinates from ORCA-job NEB_product E -32.403296543830
  C           1.41433334325148      1.02143770761456     -2.06356968591404
  C           1.22880033411407     -0.30699231236064     -1.35079765003578
  N           1.17109545778756      2.15201172920801     -1.13668316352049
  H           2.45924704440649      1.10484569369977     -2.38760039649896
  H           1.38064512896237     -1.16084749422269     -2.03787155116646
  C           0.48157374434331      1.07810982183913     -3.30125560753016
  C          -0.92085469932482      0.67882611977514     -2.93551422506594
  C          -1.53147991213653     -0.37872389315894     -3.43434095288859
  O           0.95813747385929     -0.45235700605431     -0.20081333760012
  C           0.50571231562444      2.47283469352637     -3.92896396511401
  H           0.88001184777558      0.35615841092179     -4.02292267263702
  H          -1.41822188298545      1.32303091351748     -2.22516006357638
  H          -1.05372794105551     -1.03335349881306     -4.14634618822063
  H          -2.53961005377173     -0.63260921810485     -3.15817924108424
  O           2.10753518550683      2.88915058274552     -0.94166633552500
  O           0.07646269913939      2.26113334318249     -0.65120321561770
  H           0.04530599170841      3.20576934208313     -3.27033866993540
  H          -0.05467498332356      2.46103904713327     -4.86023194320725
  H           1.52580890611838      2.78573601746783     -4.14174113486183
