18
Coordinates from ORCA-job NEB E -42.316305483620
  C           0.12179086777582     -1.10203323291362     -0.32289361275797
  C          -0.92526225272639     -0.14053903818517     -0.54487068575548
  O          -0.24385192177280     -2.10325697999255      0.56455149528143
  H           0.59685497195553     -1.47075072956573     -1.23339846037786
  C          -0.97243915332087      0.59900781940588     -1.85724766240031
  C           1.38216656338518     -0.19923378468113      0.53087405157387
  C           0.83253048939240      0.94518771004557      1.18101843250384
  C          -0.45646909017039      0.72211330283740      1.74264531638269
  O          -1.40370015704247      0.48878103723106      0.47771934501306
  F           2.38551799182719      0.05161501844938     -0.34828731205862
  H           1.70873385376695     -1.00590148504887      1.19418131438265
  H           1.04313609915031      1.90753237074795      0.73719183057218
  H          -0.93693364114399      1.56657712095508      2.22162865312390
  H          -0.57302560781069     -0.20426806514017      2.30242646058805
  H           0.40082007464432     -2.81953649575549      0.54034079695511
  Cl         -0.84593042165341     -0.51881186955171     -3.21819630788114
  Cl         -2.49342941543725      1.49135241869600     -1.97681085680572
  Cl          0.37949074918055      1.79216488246612     -1.99087279833969
