18
Coordinates from ORCA-job NEB_product E -42.351598544310
  C           2.59652386820779      0.95885544760816      0.20733340578153
  C           1.57510965817812      1.95197337753427     -0.34781361049650
  O           1.85220021020465      0.01567128932156      0.92616826885225
  H           3.15202622699687      0.48939968254309     -0.61892902425012
  C           1.41201258382401      1.90280758111446     -1.87554247212223
  C           3.62251434220747      1.69731436147334      1.11434144157239
  C           2.97657663837231      2.49272780883417      2.20420117714284
  C           2.67418495162337      1.98886469333712      3.38561735604255
  O           0.92444925961928      2.68951283313173      0.32319222055101
  F           4.38157198613187      2.51120446789511      0.30342679028718
  H           4.31187096027582      0.94442089976060      1.52520860118407
  H           2.75193975003629      3.51647913627794      1.94794674838006
  H           2.18244801906506      2.58140471188486      4.13571935228865
  H           2.89288379479851      0.96717518557601      3.64984160798107
  H           2.44888301908985     -0.61515301206341      1.34691508077013
  Cl          0.93238530983975      0.25265163405581     -2.32006580189807
  Cl          0.18024717426506      3.04491262469591     -2.40791276075009
  Cl          2.96887224726393      2.30447727701927     -2.63374838131673
