20
Coordinates from ORCA-job NEB E -41.033500107320
  C          -0.87980746731248     -0.25619915477937     -0.22817528741793
  C           0.18221272391968     -1.08772081982263     -0.75346961806586
  I          -1.44128035211484      1.23818783752885     -1.86452758887266
  H          -1.80682807928804     -0.81359653291800     -0.11751150421229
  C          -0.15571725399732     -2.34342250927593     -1.50207870392127
  C          -0.43838993686828      0.42305270692826      1.06686583964424
  C           1.04472497574207      0.30957328979494      1.07080910898855
  C           1.77830873135537      0.41357628279021     -0.21241600980531
  O           1.39670861023258     -0.59891562227808     -1.09860879637026
  C          -0.90992195284565      1.86446867085445      1.36572053871601
  H          -0.85176215057081     -0.18056007028291      1.88570750179489
  H           1.55572006710227      0.68199376850290      1.94666104490347
  H           2.86157007452602      0.34191708078077     -0.09689177558282
  H           1.54329592651885      1.39632886542433     -0.66278223260546
  F          -0.21961784865472     -3.40197421969553     -0.64127464378056
  F          -1.37769906833614     -2.29403591702185     -2.08529158983652
  H           0.59755088609190     -2.57990342625576     -2.26756854773847
  F          -0.14954743376999      2.78194741580137      0.68924798953943
  H          -0.77794962902636      2.08048954544524      2.43012050582472
  H          -1.95157082270410      2.02479280847875      1.07546376879814
