20
Coordinates from ORCA-job NEB_reactant E -41.085751027220
  C           0.48912754544814      1.18321812152727      0.22799594383557
  C           1.79258349184261      1.30265560058570      0.47733970544518
  I          -0.85793570581196      0.95369360472538      1.80612039912702
  H           0.06277673206924      1.16856372324748     -0.75576584374296
  C           2.74322219945683      1.48579597590988     -0.68778468438210
  C           2.32098946854219      3.98657690998376      2.24318088561949
  C           3.42801706735736      3.26526229088500      2.25738114060486
  C           3.48378341806161      1.77319792686850      2.11578491307018
  O           2.24562522406822      1.19039156847877      1.73988876871723
  C           2.28033073772178      5.47221922733812      2.39095381625358
  H           1.34523107252187      3.53590836741471      2.12846297559286
  H           4.39085092062776      3.73804550188637      2.38412682633573
  H           3.70690549082540      1.32042396889165      3.08827145737913
  H           4.28841483066031      1.49444311540186      1.42656015259629
  F           3.35069026593970      2.69839206840238     -0.66674759689757
  F           3.73670228043331      0.56337651593580     -0.66555745879167
  H           2.22052265071691      1.39311684046234     -1.65067028479182
  F           3.52504237341262      6.00712850692334      2.59919915773334
  H           1.66223105032439      5.75926258769532      3.25090068712108
  H           1.87968888578170      5.94382757743635      1.48445903917459
