24
Coordinates from ORCA-job NEB E -41.207171739430
  C          -0.30134695125690      0.46252053337112     -1.09659847299256
  C          -1.39131990808496      1.07716110996195     -0.45654860415705
  C          -0.57160711520337     -0.46081002860831     -2.13807993178584
  H           0.57273221434530      1.07997029898706     -1.27336035872449
  C          -1.12483307012104      2.41449485269245      0.23498491441954
  C           0.27625650245520     -0.92314819769717      0.28833286568669
  C          -0.77228368844766     -0.92563044439687      1.21246713778557
  C          -2.07632858193241     -1.11747574587544      0.75884892477306
  O          -2.41989518071325      0.42968215141122     -0.09506697561007
  C           1.66061874966679     -0.52484772594975      0.72720358274105
  H           0.25783201847311     -1.71694933497280     -0.45162687595014
  H          -0.63170145954673     -0.36955276474596      2.13203532017213
  H          -2.89598755588798     -1.08079883778750      1.45987839242339
  H          -2.23561103389486     -1.76748018474007     -0.09185452523284
  N          -0.78616176073537     -1.21187373717555     -2.97543396549995
  F          -0.26986991106611      2.24808268322074      1.28487988599974
  F          -0.51102008483557      3.28187249237614     -0.60252601110146
  H          -2.04671117479471      2.87419389930002      0.61582686236059
  C           2.71952920936072     -0.74355181369206     -0.34716268118705
  H           1.91390781528182     -1.13688361808671      1.59848771712878
  H           1.66351407081308      0.51470612487122      1.06113741786171
  H           2.73617258948605     -1.78563268676162     -0.65899515560836
  H           3.70263442089455     -0.48650369921551      0.03907130379824
  H           2.53147988574429     -0.13154532648659     -1.22590076730069
