24
Coordinates from ORCA-job NEB_reactant E -41.250976126960
  C           2.26282718743795     -0.34997622115163      0.53911387140874
  C           1.54559852024248     -0.11965301099975      1.65230909881299
  C           2.72883463746437     -1.57484473034916      0.04392125037722
  H           2.50040395081041      0.49918641264580     -0.08855243198664
  C           1.11890807863287      1.30540681009962      1.95612732504652
  C           3.86219129866842     -3.23271416944829      2.59965590249417
  C           2.97458429011251     -2.39241531670552      3.10286080208877
  C           1.54577356828410     -2.29875719337364      2.65345698016410
  O           1.09580336000301     -0.94527479055320      2.60368345765854
  C           5.28548812292009     -3.32685342273644      3.03868029043030
  H           3.58155710383954     -3.89389141335030      1.79082076817527
  H           3.23723725085028     -1.71480753210111      3.90477027992979
  H           0.88300587819967     -2.75876908266104      3.39467336001599
  H           1.39902088441036     -2.79200146878566      1.68813550424734
  N           3.12621219387850     -2.54041804499388     -0.43415601218038
  F           2.19448880680847      2.06829953178300      2.27371881356228
  F           0.55450900491417      1.89088894279445      0.87531409692551
  H           0.40664289887013      1.34626723594862      2.79244012056039
  C           6.22145491791055     -2.97331396103576      1.88259574413792
  H           5.49142265936979     -4.35028383681202      3.36329664341678
  H           5.46524380439305     -2.65737940007185      3.88171822162796
  H           6.03768616356639     -3.62560734721629      1.03280553217174
  H           7.25936629825476     -3.07985120873546      2.18812570368553
  H           6.05553912015815     -1.94683678219052      1.56448467722914
