17
Coordinates from ORCA-job NEB_product E -40.192713256850
  C           1.60187632013944     -0.94573600182487     -1.09599862708009
  C           0.71159126838411     -1.09764714118807      0.11222036580358
  C           1.42090279227091      0.43570791800570     -1.71541506105985
  H           2.65172753717209     -1.02009695845796     -0.77905564916453
  I           1.43962570507266     -2.58131852842368      1.50493498858533
  C           1.37831440942284     -2.16362800222538     -2.04214572959219
  C           0.13781142700265     -2.10261601393905     -2.87904474383442
  C          -1.01313548822681     -2.62298397081318     -2.49657558458668
  O          -0.29289874114165     -0.52282372915950      0.33889632642494
  F           2.48523998702155     -2.27171752023738     -2.84744306090211
  H           1.37828039764172     -3.06904798679815     -1.41781366807886
  H           0.25840920134033     -1.62716217144305     -3.84196709212365
  H          -1.13348526808771     -3.11519949500562     -1.54491337746193
  H          -1.88772218839149     -2.56102112690475     -3.11820155754509
  Br          1.99787683487615      1.76433400759735     -0.37510006671527
  Br          2.55596063161186      0.66330299321395     -3.28111747219316
  Br         -0.39557482610866      0.89055372760364     -2.22625999047602
