25
Coordinates from ORCA-job NEB E -49.412111390370
  C           0.28788993563314      0.67055524772548      0.61368852085935
  C          -1.09390889243315      0.30131597675624      0.54701564457992
  N           0.46754646936528      2.08978860414142      0.33172944497034
  H           0.79199946170695      0.41826768098333      1.54525384995139
  C          -1.73329579218865     -0.48102360424660      1.65343996848136
  C           1.01140441821321     -0.13721369533080     -0.78430570260601
  C           0.31098941016166      0.40619446537731     -1.89408463806654
  C          -1.13071104312633      0.24392482214737     -1.88773293882703
  O          -1.77315031642593      0.50067601257461     -0.54748244985968
  C           2.51743041874518     -0.03115058790762     -0.80854482755989
  H           0.75151923831254     -1.16796281421631     -0.53102235854871
  H           0.74753937952599      1.18404921158708     -2.49641093324821
  H          -1.45870819553364     -0.78286031809048     -2.07190261817302
  H          -1.63269155332986      0.92598225009302     -2.56951424689712
  O           1.04579180155108      2.73594269717550      1.18149214670096
  O          -0.02225799029095      2.51254434329790     -0.69364036150113
  C          -1.19823461840897     -1.91818760524906      1.69619787510076
  H          -2.81016615268091     -0.49428061981039      1.48473810173604
  H          -1.53370843270128      0.00595635495507      2.60910054385128
  H          -1.39353050857167     -2.42912971057639      0.75627253404576
  H          -1.69579554754431     -2.46601530767396      2.49112635666075
  H          -0.12861238608717     -1.93232534281268      1.89150694087921
  Br          3.17928746118677     -1.24697715920319     -2.21516716725926
  Br          3.20347516376383      1.74992341886082     -1.18143520983243
  Br          3.28989827115717     -0.65799432055766      0.87968152456192
