25
Coordinates from ORCA-job NEB_product E -49.446813077340
  C           2.99617004537825     -1.90673135128226     -1.50023211022913
  C           1.53485860239992     -2.17660258442268     -1.05058917718381
  N           3.30167070752248     -0.50898053955757     -1.09442086712307
  H           3.68098747730665     -2.54714337777894     -0.93555124009073
  C           1.41334719769354     -3.24403503527220     -0.00145739703034
  C           3.10018855546322     -2.18478495641195     -3.01621324453928
  C           2.55347328215759     -1.07751925670344     -3.87805244927446
  C           1.36071398835782     -1.13518842674450     -4.43993268617937
  O           0.62547254002190     -1.54944066702066     -1.50766892136554
  C           4.53549180978863     -2.51206648301005     -3.42735829972197
  H           2.50756989580482     -3.09123046955940     -3.20869147487965
  H           3.19230463261464     -0.21871109867752     -4.02435227184048
  H           0.69880146687263     -1.97385073191076     -4.30273221071727
  H           0.99470857704284     -0.32583555428344     -5.04479850459022
  O           3.98879750060170     -0.40385440965016     -0.10639648197570
  O           2.80812597052027      0.39135618376133     -1.71559017287933
  C           1.85995785792158     -2.67682132017605      1.35169778746956
  H           2.03228861236854     -4.10354519094591     -0.26516528203955
  H           0.36973492048543     -3.55472753589362      0.05927379730267
  H           2.89462127453947     -2.34391288288475      1.32778412676632
  H           1.76412520102150     -3.44433203714854      2.11428432469345
  H           1.23339221792360     -1.83315869141616      1.63012609538927
  Br          4.59582173146346     -2.86087031837410     -5.35083572855746
  Br          5.78282442686607     -1.06530520825258     -3.01211306937454
  Br          5.16205150786345     -4.14200805638404     -2.52611454202934
