18
Coordinates from ORCA-job NEB E -35.943697476760
  C          -0.13461068647979     -0.91659913944126     -0.91704138029772
  C          -1.04442563130368      0.13989030434742     -1.06123703164022
  I          -0.88606009085351     -2.77511434824716     -0.23081521435057
  H           0.58322546976621     -1.06060014256368     -1.71604074367878
  N          -0.58248025902674      1.20375540723848     -2.00397478749101
  C           0.98284698135529     -0.19788858206683      0.57170271477779
  C          -0.04972046231646      0.09127013629245      1.50515791246714
  C          -0.94778287135563      1.11385234401294      1.30635726306869
  O          -1.88860733107598      0.47821563282418     -0.21649131035348
  N           1.92006173956222     -1.14521398169323      0.88302339226918
  H           1.39397937130343      0.63400551716806      0.00694446318216
  H          -0.29393790118087     -0.68946763537154      2.21317058130309
  H          -0.65763269777640      2.01561917497491      0.78654526533522
  H          -1.77705018352978      1.22581619924914      1.98500153550809
  O          -1.01612351517611      2.31515122740477     -1.81892279846290
  O           0.19808930439732      0.87855957118644     -2.87745180710918
  H           1.59281850097890     -1.94632827669442      1.40378276393667
  H           2.60741026271157     -1.36492340862068      0.18028918153583
