18
Coordinates from ORCA-job NEB_reactant E -35.973579363830
  C           1.14449436917873     -0.06687590870232     -0.03231008426728
  C           1.62192333773909      0.92007014615302      0.72996515975577
  I          -0.60223075658556     -1.05699024234824      0.50257750902083
  H           1.60313328717421     -0.35543322813705     -0.95988219631607
  N           2.82445489856599      1.59738479774691      0.26344045120598
  C           4.30445349985339      1.58188654939511      2.89880534527587
  C           3.07425321476306      1.08610669312990      3.06529419523488
  C           1.83511925965206      1.89571912888604      2.88565454918690
  O           1.01017888457006      1.36888979062607      1.82032417435900
  N           5.46456700768228      0.89480001396445      3.11346356979393
  H           4.43946808768090      2.62381703432176      2.63790709603925
  H           2.93018546034607      0.04420385589835      3.31678304742777
  H           2.07471629926473      2.94266538785298      2.67588637238822
  H           1.17483008905302      1.83979460385613      3.75487940306766
  O           2.89742869904972      2.79226080695755      0.45591621126005
  O           3.64571675813643      0.92593588212442     -0.32812364554325
  H           5.38911563520295     -0.10713894145548      3.19187690149335
  H           6.29069196867284      1.22530362973038      2.64484194061714
