24
Coordinates from ORCA-job NEB E -57.682158568780
  C           0.38181534355989      0.76421423990103     -0.76458540185179
  C          -0.64056951299118      1.04389645490445      0.16430237413448
  C          -0.02856639294910      0.41041723907229     -2.16848988046295
  H           1.22393199898293      1.44836485059349     -0.76433742211275
  O          -0.34877354464487      1.97826573042862      1.08883519230262
  C           1.00315824073579     -0.94503354836960      0.08590696319704
  C          -0.15208294753272     -1.71731831549663      0.14548572103274
  C          -1.23103340626428     -1.22130939109942      0.92811383945305
  O          -1.64446563043361      0.25955045853166      0.31253788951498
  C           2.17750677201267     -1.46235418015894     -0.70601259395119
  H           1.35511508000738     -0.44980650785746      0.98667549463201
  H          -0.36970520801986     -2.39138910106948     -0.66817500741478
  H          -0.99661915233638     -0.93018974671909      1.94731052972459
  H          -2.17061617290505     -1.75137946844244      0.84522297944982
  F           1.01950329535758      0.12901037192410     -2.94753722245787
  F          -0.88233805312292     -0.60884423639474     -2.27676315539709
  F          -0.64052748348748      1.46607716158231     -2.74847135132336
  C          -1.28450731033533      2.18062466442328      2.13900770280091
  H          -1.10987154827310      3.18949704018508      2.50561785849586
  H          -1.11872854207271      1.46377709567286      2.94637412264750
  H          -2.30668124903780      2.08129157005147      1.77018381079926
  F           1.83934519785685     -2.15095106347468     -1.79489980702913
  F           3.01592571242582     -0.48794615538167     -1.08549841440863
  F           2.90878451346748     -2.29846516280647      0.05919577822469
