24
Coordinates from ORCA-job NEB_reactant E -57.712429910340
  C           1.93463174942271     -0.20079704905090      0.00145690357722
  C           1.81774797016195     -0.22770875751359      1.34328149892995
  C           1.83449921122719     -1.28890013006649     -0.98929685259782
  H           2.05249679707876      0.77526217428888     -0.43738713703265
  O           1.83559006882886      0.96749268138875      1.95250525779072
  C           4.12093062364127     -3.75123050181940      1.21878078508652
  C           3.51740344050176     -2.74121790845562      1.82168633407808
  C           2.03159172771974     -2.57787567478040      1.90869878702919
  O           1.65863850026356     -1.24401479228961      2.20726814342766
  C           5.60860563065974     -3.90570150740986      1.20607481847436
  H           3.59272663298428     -4.53747259002469      0.70306437840274
  H           4.09689541297236     -1.97171524436324      2.31523404789702
  H           1.66197535781977     -3.14287115433397      2.77284720805402
  H           1.52853823623550     -2.96279525643753      1.02012804847426
  F           2.85892847519537     -2.17956646126981     -0.97341301224118
  F           0.72075254632340     -2.05481608176951     -0.86299348105946
  F           1.80144116280746     -0.79967921085241     -2.23197432650647
  C           1.72970947152785      1.00965831604875      3.36723860403434
  H           1.77641130637177      2.06566269542173      3.62263633458093
  H           2.55416436501559      0.47481965551084      3.84355844752688
  H           0.78218155630924      0.58476103756626      3.70379072167204
  F           6.08968699921677     -4.10121127299903     -0.02818678026052
  F           6.25701554645392     -2.84797876038787      1.71306750430331
  F           6.00043721126119     -4.97090420640133      1.93423376635886
