23
Coordinates from ORCA-job NEB_product E -40.963713404160
  C           1.65405856785997      1.51116437282580      1.05799749789346
  C           0.70043341760824      0.78941449523569      0.11778651163412
  C           2.18608262415600      0.50817674468624      2.07122340366619
  H           2.50574959593956      1.89401626642398      0.48628365791993
  H          -0.12224020903863      0.27342143967954      0.64562152505579
  C           0.87036210815050      2.67521568015352      1.71155433336186
  C           0.20956348959443      3.45665209013081      0.60813936249552
  C          -1.09233032944861      3.64275262399168      0.50993900679277
  O           0.79478766678730      0.78878122608767     -1.07093609736975
  C           1.76426466564625      3.60695678431955      2.55840847318395
  H           0.09302859533508      2.24758541935764      2.35292284193515
  H           0.88534046490443      3.88951659560055     -0.11681787165991
  H          -1.52472040575937      4.22470734663459     -0.28496733181895
  H          -1.78242338530083      3.22205394227041      1.22309529267810
  F           3.22057632140611      0.97668118561022      2.78019056672160
  F           1.25543192699280      0.12032409548701      2.95543289324197
  F           2.62513071410690     -0.61159484865247      1.47287876464932
  C           1.58979113833179      3.38725288337241      4.05650959590255
  H           1.49653063183000      4.64011448250801      2.32558389988753
  H           2.81283489734232      3.47394406377452      2.28854551599199
  H           0.55925552813766      3.57412321181588      4.35008229979640
  H           2.23132542931471      4.06978263818475      4.60809128638815
  H           1.85166654610337      2.37305726050200      4.34343457165227
