22
Coordinates from ORCA-job NEB E -51.902645779790
  C           0.69489734075551      0.01991339805852     -0.61229256327242
  C          -0.27703642011238      1.05893668490223     -0.79348259957083
  C           0.54169341436251     -1.15017590682594     -1.56568098230629
  H           1.73458298238675      0.34357071182122     -0.63427710252634
  C           0.05468429700723      2.43990846539953     -0.66797515222791
  C           0.42725385332942     -0.63436596944745      1.04588773961216
  C          -0.95837129815394     -0.95530468284059      1.00277069983681
  C          -1.92177409403691      0.05704474212883      0.61141140557947
  O          -1.55976371177913      0.74169340853231     -0.67272219610616
  N           1.35941491248676     -1.63090794412784      1.28077681146720
  H           0.67028715016437      0.29693796592602      1.56607696228686
  H          -1.25665615464776     -1.99235479830598      0.99489454689241
  H          -1.95861553137676      0.88897220123259      1.32561131157610
  H          -2.91880653340334     -0.33779437853333      0.43240873982753
  F           1.45738788107676     -2.10473495536619     -1.36171565903209
  F          -0.64874107355893     -1.75316432240615     -1.52854749933167
  F           0.71668525153928     -0.73058427183152     -2.82994666508406
  Br          1.74273059267059      3.01572338640666     -1.30649730212017
  Br         -1.34558226580728      3.62662637974650     -1.12501884995012
  Br          0.25065760911422      2.81414749829236      1.69897464697679
  H           1.05116835286959     -2.58695419056820      1.26895390649446
  H           2.14390344511343     -1.42713342219358      1.87038980097826
