22
Coordinates from ORCA-job NEB_product E -51.927231816170
  C           2.19443055251409     -0.49119298173866      1.74506047375984
  C           1.33219578527597      0.70239491948899      1.43085556904231
  C           2.07607560603088     -1.50206660233892      0.60517345887486
  H           3.25637671084218     -0.23678146551799      1.82688753575291
  C           2.02461882009516      2.05881208979680      1.51130496313667
  C           1.75469737117788     -1.08439544403934      3.13524013930793
  C           0.49599302854723     -1.89840082337805      3.00798007395537
  C          -0.69682715478624     -1.45684201281640      3.35937422473183
  O           0.16897097703878      0.64459006393352      1.16022963597514
  N           2.89871727885790     -1.78402784744162      3.67599417783922
  H           1.56028418902978     -0.23008940459751      3.79490215124852
  H           0.62610368694138     -2.89999978482551      2.62010640933299
  H          -0.84611867840695     -0.46386292122845      3.75036136630626
  H          -1.57575964224188     -2.06878286669159      3.26100324483773
  F           2.69186146877887     -2.65746780982804      0.88855456341710
  F           0.82728614979797     -1.80899372316055      0.26284905269982
  F           2.66780287814287     -1.02248948167403     -0.50072934532749
  Br          3.38738599413048      2.14027231114685      0.11557493766161
  Br          0.72597154134144      3.45663495890006      1.24014493109992
  Br          2.87097691721823      2.29525994322939      3.24445993932288
  H           3.04616364372580     -2.67549001500186      3.21657594921722
  H           2.78849287594817     -1.94598110221709      4.66819654780736
