23
Coordinates from ORCA-job NEB_product E -44.557465633100
  C           2.32615017059081     -1.46148960324113      0.77969776233289
  C           2.00607514372296     -0.08775837481338      1.28906768451463
  C           1.56712843304279     -1.69656255523650     -0.52604599050505
  H           3.39201474841782     -1.53349990891196      0.54252966355552
  Br          3.42672063852762      0.60201599277157      2.44832898041837
  C           1.94409705895202     -2.55976269231302      1.82578583513172
  C           0.90547218403334     -2.04313805612810      2.78621627613646
  C          -0.37645631603786     -2.34444626593481      2.71837828233392
  O           1.05718249356029      0.57967562291203      1.08729864793028
  C           3.17341620790000     -3.06973054634644      2.58821113896104
  H           1.51482829610528     -3.39802741474114      1.26629327600118
  H           1.28047845655954     -1.40356063334992      3.57466417121714
  H          -1.08632674895322     -1.95757001910585      3.42812034304935
  H          -0.77149135443613     -2.98114806903814      1.94438709857715
  F           1.93710784649840     -2.86083957181758     -1.08334050394494
  F           0.24415776776469     -1.74903441392129     -0.37789391437434
  F           1.83016850566584     -0.74574594283600     -1.43237727192090
  C           4.11147582431381     -3.89988741683770      1.72075508532228
  H           2.80864967765367     -3.69259526581871      3.40752554707682
  H           3.71559935403232     -2.23156059419724      3.02857399359935
  H           3.57965713259575     -4.73674746924870      1.27399903063123
  H           4.92226156298055     -4.29313317245019      2.32786219958618
  H           4.55233291650970     -3.31175362939579      0.91916266436972
