21
Coordinates from ORCA-job NEB_reactant E -32.755979831240
  C           1.64352026773681      0.19499399304880     -0.20359978922158
  C           1.99069326238864     -0.90183376663538      0.46274178483382
  C           0.97007902357080      0.20230508323055     -1.53599657906393
  H           1.87007848500249      1.14725620996464      0.24827887479655
  O           2.66158664716504     -0.79652923710621      1.65209811958232
  C           4.56152023972719     -4.12385737821915     -0.04357740167594
  C           4.02850413212926     -2.92832106137265     -0.21563631467598
  C           2.69670820706410     -2.71792193023411     -0.87361967257743
  O           1.72696681781228     -2.17788588994687      0.01669838863009
  Br          6.23391613783223     -4.38796325827802      0.79866386250354
  H           4.10550766428021     -5.04274455901301     -0.37744385039523
  H           4.52320980284573     -2.03762974441366      0.14775857086143
  H           2.27194880473134     -3.66651168144677     -1.21109325350095
  H           2.82473929056631     -2.04739145193199     -1.73503277306744
  H           0.62875771963787     -0.79456950298474     -1.80276032994687
  H           1.64817500616722      0.56680221012546     -2.30913782144527
  H           0.11073007605982      0.87013348575181     -1.51094889047024
  C           2.45133417095089     -1.83162009175926      2.59352393318674
  H           3.03799644334201     -1.55617948398146      3.46730106930123
  H           2.78969160569673     -2.79995549674569      2.21435873914903
  H           1.39413619529302     -1.90487644805229      2.86312333319612
