23
Coordinates from ORCA-job NEB E -50.307081673480
  C           0.22518174616905      0.33428209673642      0.95885256395934
  C          -1.14161322996251     -0.00178757454233      1.23157198624019
  N           0.33100925245661      1.73595785159828      0.52043576111116
  H           0.94585813232825      0.14833346246783      1.75440250846713
  C          -1.51261938370319     -0.85225517221031      2.34157135400845
  C           0.72151833777488     -0.57561657960112     -0.45597563553160
  C          -0.27480126290103     -0.23378953945685     -1.41259815819424
  C          -1.66480939693303     -0.46184466267670     -1.06329394374976
  O          -2.03075170634108      0.13627311552954      0.26623231872248
  O           2.05772380644701     -0.35985429393306     -0.66925161434542
  H           0.62865992142456     -1.57601101632677     -0.01824901513163
  H          -0.04650950800360      0.38822823419149     -2.25946264106131
  H          -1.89961544397184     -1.52130134767910     -0.91467577877878
  H          -2.36392143669884     -0.00715527461736     -1.76041284493534
  O           1.01402850086917      2.45534920187990      1.20503152359875
  O          -0.29885728806191      2.05856518648642     -0.45831626507343
  Br         -0.55643072776057     -0.59086674399518      3.97191545975360
  Br         -3.39671851088080     -0.91947603208363      2.63172185675797
  Br         -0.98369842391019     -2.93515808407862      1.69303837680837
  C           2.46267337585603      0.52783118831614     -1.69606885196282
  H           2.24557586987724      0.10987119226784     -2.68294796398338
  H           3.53934307317050      0.62763492495612     -1.57638878515772
  H           1.99877430275530      1.51278986677104     -1.60713221152200
