23
Coordinates from ORCA-job NEB_reactant E -50.340033578360
  C           2.39576983435599     -0.60434345715532     -0.27782167513864
  C           1.50661465359625     -1.60341101576333     -0.44739252925980
  N           2.60546119966567      0.48526956500412     -1.16241790505104
  H           3.05288349709561     -0.59178632046501      0.57948101721009
  C           1.35328826298497     -2.61715145960905      0.66425066530774
  C           3.23075607135477     -2.49420024981991     -2.99903417572189
  C           2.42960519436253     -1.45278431673076     -3.22442482936640
  C           0.98940620462604     -1.44523964683531     -2.81075333592493
  O           0.77252658071918     -1.95287555032407     -1.48664613890210
  O           4.53501057199843     -2.61288204545988     -3.26888435891763
  H           2.86581971659138     -3.40115885747804     -2.53047917412030
  H           2.78565290469839     -0.55816671787119     -3.70786492666877
  H           0.37635904627283     -2.11339718894432     -3.42345208821938
  H           0.59003591616404     -0.42648361157291     -2.87660852187345
  O           3.74596256876385      0.88007984861817     -1.28527440142039
  O           1.63423549371483      0.97939801192588     -1.70279316525720
  Br          1.22497056194242     -1.77686492271885      2.40853117090397
  Br         -0.21984940129659     -3.69972780688278      0.38836074443967
  Br          2.92548404639221     -3.80159886631541      0.65448786072285
  C           5.20070535855323     -1.49924153140579     -3.83130699925637
  H           6.24469443815086     -1.79145278781259     -3.91948330936575
  H           5.11891041875581     -0.62245810486192     -3.18264139578579
  H           4.80119686053731     -1.26072296752174     -4.82083252833447
