20
Coordinates from ORCA-job NEB E -35.728653211130
  C           0.67998714638346     -0.15672882214014     -1.13644954499912
  C           0.28691491855029     -1.44524801437176     -1.43029577927145
  C           1.64773552501958      0.68364978395466     -1.73044020949154
  H           0.14914734178483      0.23437284603065     -0.15157226207209
  H           0.76901264148488     -1.78078073501978     -2.37747006733467
  C          -0.29579442092121      0.38664673930641      1.04140081697705
  C          -1.66462023975425     -0.09839829560938      0.94655188701678
  C          -2.68173715126073      0.68117602208148      0.58076918027208
  O          -0.47983419915849     -2.18218103201103     -0.83400891998102
  C           0.65064838127545     -0.37865725884220      1.91056350854330
  H          -0.20515605476286      1.47098808578757      1.12281787953791
  H          -1.81514664182205     -1.14925501427153      1.14808484175819
  H          -2.54041524567146      1.71917204664353      0.32364824024881
  H          -3.68816570757316      0.30573597190106      0.53001928973772
  Br          1.93848188189336      2.31373252034900     -0.73844108191963
  Br          3.48807731766697     -0.18567770557140     -1.98012273628440
  Br          1.12681852388395      1.28173105433976     -3.66601878099477
  H           1.67147876158551     -0.01811240237476      1.80800362243328
  H           0.61284845517843     -1.44141647560067      1.68297077567520
  H           0.34971876621749     -0.24074931458148      2.94998934014838
