20
Coordinates from ORCA-job NEB_reactant E -35.826921882730
  C           1.61662208141675      0.04367635290315      0.29143239549566
  C           0.75804289466055     -0.75908536256557      0.92554197520794
  C           2.52350615740968     -0.35661649155930     -0.78493348557351
  H           1.65852677896529      1.09162858615385      0.55555540346161
  H           0.68674150642538     -1.81736017787858      0.68693764260032
  C          -0.14510871827100     -1.96518810385250      4.90908430840391
  C           0.06315625688238     -1.97911930979056      3.60323289994946
  C          -0.80070464444075     -1.26789710070803      2.60448888352348
  O          -0.06511546575572     -0.29605420841780      1.86606191659227
  C           0.70322415701363     -2.67009162781607      5.90927655455336
  H          -0.99143713464653     -1.42340799862065      5.31205852602069
  H           0.90961237083596     -2.51144571185523      3.18822110440737
  H          -1.59177774271838     -0.70643279498269      3.10516134017666
  H          -1.25379382081547     -1.99031960918211      1.91029017174602
  Br          2.05351658728548      0.58201691824444     -2.47993984243023
  Br          4.38313003180563      0.16083133571693     -0.34890062802218
  Br          2.53658732537440     -2.25585101548944     -1.17581220355622
  H           1.53406580947788     -3.18168006926259      5.43069752704740
  H           0.10706442350060     -3.39874046122099      6.45754762979931
  H           1.09564114559422     -1.95666314981625      6.63289788059665
