17
Coordinates from ORCA-job NEB E -34.578034704900
  C           0.08517452462685     -0.89113746176223     -1.09451697398504
  C          -0.98477757140457     -1.56452996828219     -0.48093580911425
  F           1.33688593116392     -1.30111683037759     -0.80161878984553
  H           0.01947729677187     -0.62264001171450     -2.14649082672128
  H          -1.97094353209789     -1.44936362656843     -0.93865001959293
  C           0.00371187023115      0.72637225394776     -0.11461829852963
  C           0.21856377889767      0.26397622960467      1.19306198942153
  C          -0.77808377072090     -0.57895628463478      1.75378119296851
  O          -0.90796087885917     -1.87471145510433      0.77165188021379
  C           1.02319580620778      1.65644986342755     -0.73703019667507
  H          -0.99942235787682      1.04869773998269     -0.38187203146929
  H           1.24037472516747      0.15339216858894      1.52549612420219
  H          -1.80003574172672     -0.21067750791562      1.71001463956403
  H          -0.54143252781754     -1.03936895640854      2.70469137810992
  F           2.29122771049289      1.22864983058150     -0.59418667735478
  F           0.80237557527110      1.78702321263646     -2.07059241980492
  H           0.96166916167291      2.66794080399864     -0.29818516138725
