17
Coordinates from ORCA-job NEB_product E -34.615649226150
  C           2.25941337837309      2.56706310393475     -0.50965226015993
  C           1.27234445402290      1.51975178765695     -0.01885259713880
  F           3.42059461723751      1.97620249019375     -0.92749091699351
  H           1.83109011739892      3.07458739427859     -1.38807490183524
  H           0.31583423136248      1.98126701225941      0.29797258116492
  C           2.54301453146497      3.57968646491444      0.61658956962311
  C           3.02892162249822      2.87279542833848      1.85449304774997
  C           2.44873428963553      2.98518804309281      3.03270473977464
  O           1.46932295073112      0.34727205752381      0.03203333941708
  C           3.56899111472462      4.62915961130888      0.15580390700674
  H           1.61758805460541      4.12511126610408      0.82978189095653
  H           3.90909752525202      2.26278485461428      1.71090738082920
  H           1.57668573212219      3.60037886027667      3.18571442456549
  H           2.82885179067872      2.46963085224184      3.89648560051551
  F           3.47481872906376      5.72751925601518      0.94488309000767
  F           4.83637018619566      4.19253122835983      0.26550316799997
  H           3.41262667463286      4.95517028888623     -0.88590206348336
