21
Coordinates from ORCA-job NEB E -44.571032935650
  C           0.40402442893872      1.07473525469663      0.16569391619291
  C           0.27216473594712      1.02954884831568      1.55843873974731
  O           1.63055774185036      0.79414700992995     -0.33893605915924
  H          -0.19105139303661      1.79323212276226     -0.38950697329263
  I          -1.49000804232340      2.06732162605724      2.30568546470906
  C          -0.55735993783756     -0.77778527772810     -0.20673631625614
  C          -0.72276806898322     -1.39771909744550      1.03043330167863
  C           0.38665985230453     -1.54733024467685      1.86015515124792
  O           0.78235313963860      0.17320794880020      2.29325783199771
  C          -1.75261610308913     -0.58545112991562     -1.08978742984937
  H           0.33040772217284     -1.04568700616088     -0.76884752811238
  H          -1.70635428642176     -1.39445200189555      1.48107682702583
  H           1.35116346898954     -1.73652865325203      1.41021003677190
  H           0.25258530844251     -1.95594151732358      2.84962539594274
  C           1.88273697805462      1.21474034868432     -1.66458261141884
  H           2.95217219702968      1.08696596178771     -1.81935872553097
  H           1.61484773893899      2.26524636165439     -1.80394171564692
  H           1.33168917467617      0.60683288290246     -2.38764346300046
  Cl         -1.41631850674569      0.48869394712854     -2.46750246946464
  Cl         -2.18307268313660     -2.19620665340456     -1.78050336100410
  Cl         -3.17181346540968      0.04242926908328     -0.23723001257830
