21
Coordinates from ORCA-job NEB_product E -44.619184532520
  C           0.51022897561826     -1.40585572862219     -1.12571877881548
  C           0.96858281036524     -1.03667461443475      0.27855499107319
  O           1.61371417857136     -1.47341632173731     -1.97810575420960
  H          -0.23059788078823     -0.67267950832265     -1.47894488828727
  I          -0.41676978906783      0.28937931987973      1.29654627874974
  C          -0.11649667516304     -2.82053139586858     -1.05136680134930
  C          -0.87300419956747     -3.03742214568212      0.23229061530914
  C          -0.43684364991755     -3.80950129795040      1.20930170763895
  O           1.96269350939610     -1.36942456597636      0.81203409716878
  C          -1.03252728308502     -3.08444925346379     -2.24713697492761
  H           0.72180199073958     -3.52349673889133     -1.11211284312118
  H          -1.81745215319299     -2.51777036239245      0.31136365834505
  H           0.50035834787815     -4.33750956830282      1.14556742935970
  H          -0.99938233993375     -3.93553028317913      2.11765806083795
  C           2.11952212120618     -0.21726215065357     -2.37598604088984
  H           2.91245995766879     -0.42808419701669     -3.08932823907158
  H           2.53235828157150      0.33910318276287     -1.52800058998795
  H           1.34057152235007      0.38407666051786     -2.85784560265714
  Cl         -0.16136757124790     -2.97592524159133     -3.78615202266443
  Cl         -1.70511831945214     -4.72725033146999     -2.09697012423840
  Cl         -2.38903183394931     -1.93427545760499     -2.29094817826273
