21
Coordinates from ORCA-job NEB E -44.583493903620
  C          -0.65945001177795      0.18105196232151     -1.03172554336944
  C           0.41366094237433      0.67282286021185     -0.25734141249587
  C          -0.35227377053194     -0.60338834550267     -2.26968747948179
  H          -1.49905199504032      0.85566986530845     -1.13887889508323
  O           1.61206664743164      0.08630567863447     -0.43871646251849
  C          -1.49287043241079     -0.95797061652120      0.45699348417734
  C          -1.69207743586570     -0.01831911020087      1.45899958761048
  C          -0.56260779008242      0.57061695691399      2.04781774064828
  O           0.19678599813839      1.43996922512110      0.73258995861146
  I          -3.19933365231876     -1.91980301214738     -0.33417722821140
  H          -0.66514525846782     -1.64948981016495      0.52376496509228
  H          -2.62958208795763      0.51637133498382      1.49567147747961
  H           0.27647661663680     -0.06926553997888      2.29222621966277
  H          -0.71716763627422      1.37819864313480      2.74837053919293
  Cl          0.29207370570623     -2.21781832296404     -1.91040766550180
  Cl         -1.78559655199789     -0.77722037341561     -3.29995607475191
  Cl          0.88505089528675      0.25494454045661     -3.25859542459848
  C           2.68589266727227      0.49314397877297      0.39457533954082
  H           3.57877445976269      0.50425737531680     -0.22802704865518
  H           2.81640644552713     -0.22506654581777      1.20749935737405
  H           2.49796824458919      1.48498925553701      0.80900456527756
