17
Coordinates from ORCA-job NEB E -37.309684574720
  C           0.20879734680959     -1.67010089168639     -0.90713349985237
  C          -0.50107729582085     -0.53108101775918     -0.89892502035625
  C          -0.09127574474664     -2.73623394172052     -0.03450369519191
  H           1.01887353478942     -1.80452903157087     -1.60465213574426
  N          -0.10849412299731      0.41417812561939     -1.94770496410345
  C           1.16933292333929      1.46214163754168      0.96685601164894
  C           0.20035690823863      0.72920676421964      1.48719597460851
  C          -1.20978106386417      0.77556436445671      0.96268080035709
  O          -1.46140191524203     -0.26135305854800     -0.01287233868606
  Br          2.94227817742223      1.42009708441488      1.56581109153837
  H           1.00911421091085      2.15366098169473      0.14603140235879
  H           0.37215353913746     -0.01664027198439      2.25431439577875
  H          -1.39963862148985      1.76380717922438      0.52409234299627
  H          -1.95494409795112      0.57104204060290      1.73340934748610
  N          -0.29567768444672     -3.72954506285910      0.49896638050005
  O          -0.95732989388640      1.07773860169469     -2.47407923034937
  O           1.05871379979763      0.38204649665947     -2.25948686298917
