17
Coordinates from ORCA-job NEB_product E -37.318236051540
  C           2.40275513374052      1.22413452112187      0.74056349346480
  C           1.41942694904792      1.87560886000781     -0.19068608793161
  C           2.02300322781158     -0.17366702865318      0.87401910060370
  H           3.39941094651707      1.23932774028768      0.27485327261910
  N           1.66153986498744      1.46990249377867     -1.67269488988934
  C           2.41231482665978      1.93373396856793      2.10561249042769
  C           1.15687219649697      1.74119842368177      2.88184320215945
  C           0.46980540002088      2.74329720620953      3.39882821897291
  O           0.52478631625837      2.61084085959542      0.04146906348682
  Br          3.95355703377221      1.21900869558279      3.14680312692287
  H           2.63221308358498      2.99455668247943      1.96558377749588
  H           0.84769678286760      0.71381621594998      3.01984233427656
  H           0.77482182664243      3.76929262518547      3.27419327398018
  H          -0.43190778309381      2.57398958626181      3.95942930264479
  N           1.71930663344485     -1.26426770074628      1.00536546927538
  O           0.77756416570539      1.75336157210564     -2.42818856065010
  O           2.70623339553582      0.92016527858366     -1.91883658785906
