17
Coordinates from ORCA-job NEB_reactant E -37.327061019190
  C           1.92147831742934      0.34860511425429      0.15206354530123
  C           1.43644336158875      1.59169236670931     -0.01032941522921
  C           1.92632199443367     -0.40178668897179      1.33514172096435
  H           2.35831861499155     -0.13378900472679     -0.71417795358375
  N           1.55327190108485      2.20393911527915     -1.35113518953405
  C           3.05750718683878      2.62674776766280      2.57993179963129
  C           1.93505303010062      2.04501039670339      2.96595078240144
  C           0.65945612341243      2.09420163746595      2.17587092108959
  O           0.84108598123319      2.44368930869696      0.81444780401860
  Br          4.64222866589419      2.54436506626536      3.59376589802892
  H           3.16433973549706      3.19405326484699      1.66799911282279
  H           1.87729743690178      1.49565842097186      3.89319299685849
  H           0.00472203550167      2.87795237642461      2.57247234275307
  H           0.13783574704193      1.13299923341673      2.25434993190991
  N           1.95083382485097     -1.05281781720508      2.28008299531728
  O           1.19739732526883      3.34778628824007     -1.45302335019068
  O           2.00160871793040      1.51069315396618     -2.23270394255930
