20
Coordinates from ORCA-job NEB_product E -37.794126425120
  C           2.25402978445618     -1.78188307294458      1.76819359799114
  C           0.98849888018390     -1.51678716584811      2.52138362460451
  H           2.22597156292977     -1.16166773364353      0.86556158294359
  H           3.09525671000159     -1.42095647022435      2.36823841996534
  C           0.85353218780285     -0.03792745413661      2.97519504888722
  C           2.44940642301376     -3.25152900877352      1.37784929662444
  C           3.56999918684923     -3.37279815246963      0.38460218644079
  C           3.43925138784251     -3.89687225876320     -0.81816782843579
  O           0.12552455173667     -2.30695476204441      2.77898785026157
  C           2.75973708224189     -4.08838312874390      2.62353875996972
  H           1.52398812977956     -3.63310993223950      0.93613923068962
  H           4.52910384166218     -3.00613276256517      0.72679072441763
  H           2.49503960805101     -4.27701342625499     -1.17120026901652
  H           4.27029686318983     -3.97594931732988     -1.49730574956672
  F           1.87390484259772      0.27572102107675      3.80950415615076
  F           0.96153058606862      0.78964694429266      1.90931682412642
  H          -0.09808357269982      0.16272474083188      3.48725260460597
  F           2.87992419314636     -5.41148312827209      2.28571366868640
  H           1.95088007993323     -4.02244133085856      3.35723574176423
  H           3.71230767121296     -3.79260360108926      3.07787052888966
