20
Coordinates from ORCA-job NEB E -44.993574877410
  C           0.42345998970054      0.73102319719077      0.53919942734838
  C          -0.85807200034172      0.15618427169319      0.62484887407946
  C           0.50490259284761      2.03663427966440     -0.22682984678902
  H           0.99295402906381      0.76898955171422      1.46346876057009
  C          -1.23206151835606     -0.66209469919209      1.84276018415019
  C           1.37462989932337     -0.48367182468156     -0.59046818304205
  C           0.44488981415010     -1.34085594347879     -1.18913336572977
  C          -0.72641032397980     -0.71966625109766     -1.71800566384668
  O          -1.52183421511771     -0.10406001427101     -0.46078835484204
  Br          2.75230057496971     -1.30351498194831      0.46315796605537
  H           1.82055014698156      0.29558058590857     -1.19588414235117
  H           0.34232481738813     -2.34318848682905     -0.79748669277157
  H          -1.46960005580287     -1.38572087381051     -2.14183959258780
  H          -0.56233872952576      0.15595198757570     -2.34288390146661
  F           1.79898507371103      2.38356424591533     -0.50607093000702
  H           0.09708259316292      2.83755039901162      0.40054837763523
  H          -0.03523222443806      2.00180186937000     -1.17715787395157
  Cl         -0.35666593516748     -2.23304277836705      1.85427996836358
  Cl         -0.82015123361973      0.20751292124909      3.32933016770121
  Cl         -2.96971329494958     -0.99897745561686      1.82895482148179
