20
Coordinates from ORCA-job NEB_product E -45.040246903030
  C           2.48729366313659     -1.55735096511630     -0.29983091270694
  C           1.21343466832662     -2.22921301280919      0.16671417751902
  C           2.13019000586947     -0.17604962612809     -0.87240726368377
  H           3.17751642497785     -1.42601374339837      0.53774988714392
  C           1.09450545098566     -2.44681955420251      1.68699966410831
  C           3.18321956667550     -2.38791000053299     -1.39376795889473
  C           2.40988798059648     -2.53647231206684     -2.65686199726364
  C           2.89861617180945     -2.19727489811474     -3.83630163014836
  O           0.30150601440033     -2.51266514864268     -0.55176050958271
  Br          3.55020684001557     -4.19839290208997     -0.66941940776915
  H           4.16755313841784     -1.95630450648029     -1.58941610331803
  H           1.42217600808652     -2.96400663927062     -2.55804000061516
  H           2.32640671317197     -2.32242421264136     -4.73861996500918
  H           3.88551771155042     -1.77755678754805     -3.94601968050056
  F           3.27040686453652      0.44895202106146     -1.29632293296329
  H           1.67865254205302      0.46157171958559     -0.10686062108913
  H           1.46748578445512     -0.26862154973528     -1.73814713460345
  Cl          2.56059406289732     -3.06108332973340      2.45613890574452
  Cl          0.75759763287797     -0.79464511590591      2.29704552856095
  Cl         -0.26806724484021     -3.50211943623046      2.06052795507137
