14
Coordinates from ORCA-job NEB E -25.611665107660
  C           0.84045280640408      1.14043639137670      0.11859261745229
  C          -0.33048706918681      1.38076124294233     -0.61757246095985
  Br          2.46695677071979      1.82593856977864     -0.57984931920037
  H           0.79056252778701      1.26875170770505      1.19144500045544
  H          -0.23577030966153      1.61521297903622     -1.68453115329839
  C           0.85328841540298     -0.85640907639768      0.22261689414837
  C          -0.44788430533143     -1.27589020745887     -0.09374283293318
  C          -1.51101912684628     -0.65857004417767      0.55023175857532
  O          -1.45068000680176      1.00873330649850     -0.17309987788356
  I           2.42120589198193     -1.65650747820838     -0.96047246908598
  H           1.14823833252586     -0.85163171231460      1.26291929837342
  H          -0.62674246337139     -1.67627989641014     -1.08331362897373
  H          -1.39835172448149     -0.35126526632383      1.58126632195785
  H          -2.51976973914096     -0.91328051604627      0.26550985137238
