14
Coordinates from ORCA-job NEB_reactant E -25.661999933120
  C           2.15145824229740     -0.35983687498112      0.41072837885402
  C           1.35552492950182     -1.38030067690644      0.11837486660265
  Br          3.08656156692184      0.55425473779232     -0.94415405586277
  H           2.30593796496350      0.01521711124421      1.40712072188035
  H           1.22799465007510     -1.72577169121856     -0.90215844406946
  C           2.15965275879624     -4.38707521083624      0.64486278712727
  C           0.86120658693017     -4.37621826506868      0.41795879090411
  C          -0.02740151622454     -3.18961074397569      0.66998317143429
  O           0.65222788625207     -2.02563018003828      1.08047180516291
  I           3.37259037610895     -6.06201161650070      0.27890317817376
  H           2.70301301749890     -3.54444224458269      1.03739195858328
  H           0.34431102234855     -5.24267947704760      0.03173278335089
  H          -0.71984720195206     -3.42421078217672      1.48575864519015
  H          -0.62123028351795     -2.99158408570382     -0.23527458733145
