14
Coordinates from ORCA-job NEB_product E -25.662683753100
  C           2.39885511060460     -1.83144092326502      0.24467989770197
  C           1.24459033437181     -0.85511485580763      0.19736755624744
  Br          3.01402527370923     -1.95328165825054     -1.61186384836318
  H           3.22894579188206     -1.41359066380575      0.82021728432281
  H           0.40781885933096     -1.20076973215971     -0.43662111067042
  C           1.95453203760594     -3.17512036610623      0.79502945944117
  C           0.87381248480608     -3.82741195347010      0.01086736269697
  C          -0.25483697177683     -4.25799766073798      0.54600905379388
  O           1.23434933616417      0.19526513224176      0.76439069742032
  I           3.67425962698101     -4.53028570916019      0.89430600600433
  H           1.65240363039264     -3.03580918105808      1.83600734652998
  H           1.07454568839238     -3.95741248674766     -1.04453831950749
  H          -0.46536722300735     -4.15325493006377      1.59820690729026
  H          -1.01373397945669     -4.73337501160911     -0.04985829290803
