20
Coordinates from ORCA-job NEB E -29.300679536740
  C           1.08472026446542      0.31021975217971     -0.43089258618535
  C           0.66668208865327      1.64026781564564     -0.54330725725215
  C           0.75358548361966     -0.62884411890279     -1.56722307821700
  H           2.08418773081147      0.14949594000632     -0.03844676071459
  H           1.18096245032716      2.40801047313245      0.04223230101617
  C          -0.10339678140270     -0.25058021720422      0.98212797573241
  C          -1.35318058116330      0.03272802211259      0.42323961677667
  C          -1.66277739648596      1.38758625898587      0.12314023167236
  O          -0.53992137548158      1.89339359118792     -0.94879794451323
  C           0.25086728870968     -1.67002037916983      1.34221409092309
  H           0.25725844345509      0.45603558347493      1.72453362492592
  H          -1.84254930109859     -0.74100525142964     -0.15139679115375
  H          -1.50217267122668      2.10689810807927      0.92194932580759
  H          -2.58621321049477      1.56827549039134     -0.41318874331676
  F           1.80820638421444     -0.63346540468716     -2.45530540068706
  H          -0.12461208538807     -0.27914725116308     -2.11714838556606
  H           0.62843210443053     -1.66683986099627     -1.25003145394150
  H          -0.22768766345458     -2.38313999043511      0.67604887395131
  H          -0.09840202607762     -1.86994153508475      2.35473728826706
  H           1.32601085358711     -1.82992702612318      1.32551507247484
