20
Coordinates from ORCA-job NEB_product E -29.342121461060
  C           1.49191058728653     -1.33634714908426      1.93822934918123
  C           1.41710590137340      0.14907828417766      1.66893979621334
  C           1.05952454447898     -2.13754371456347      0.71292647881768
  H           2.53132187420165     -1.59184232254382      2.17099637773066
  H           2.00236891850982      0.75077055369249      2.39260607960671
  C           0.63208405116568     -1.61112060459628      3.20104612480879
  C          -0.82699764277432     -1.44910767314785      2.88655830162071
  C          -1.55760216641065     -0.42120443808356      3.27317578930249
  O           0.77164940670105      0.67010548441656      0.80746140300160
  C           0.91637792867822     -2.99556801230119      3.78349816795165
  H           0.91401938680732     -0.86077392587619      3.94907483596766
  H          -1.27086446557396     -2.24639260192745      2.30654690090815
  H          -1.14176418792717      0.38650778018175      3.85328816102325
  H          -2.60129310089908     -0.33889189904945      3.02462483621668
  F           2.13413885035187     -2.29760940066138     -0.12914201084025
  H           0.28822737178554     -1.60297072835046      0.14996444660125
  H           0.72215993835841     -3.14483373752561      0.97016300022459
  H           0.64541655632833     -3.78359214884162      3.08582596272028
  H           0.33431955186899     -3.13383043066389      4.69163954164749
  H           1.97039669568940     -3.09923331525198      4.02997645729604
