22
Coordinates from ORCA-job NEB E -45.417987887610
  C           0.45536673650712     -0.00963189327481      0.97307639620520
  C          -0.91751261207820      0.08968966389213      1.26329280478139
  C           1.28311140826637      1.25856285034296      0.94941004924034
  H           1.00861483585758     -0.80643674870085      1.45978320701027
  N          -1.57441828333597     -1.00019541453992      1.80071464518989
  C           0.21286679202552     -0.64083472466666     -0.90199423831929
  C          -0.56479508619480      0.35343400699525     -1.49074294862367
  C          -1.85121359598688      0.59001234215394     -0.92379065761202
  O          -1.64155634227811      0.97375090803188      0.65105122246836
  C           1.57689128938152     -0.94882562824618     -1.46836994168649
  H          -0.28091823644839     -1.55945989296901     -0.59414125707577
  H          -0.06920752988174      1.16161504461891     -2.00414828152217
  H          -2.48927186619455     -0.28372404697421     -0.80825637487802
  H          -2.38609555386574      1.45533136831173     -1.29351750070633
  F           2.60028920282558      0.95744821180074      0.87441451383914
  F           1.02097169851401      2.10116735342020     -0.06889538309342
  H           1.14447435743471      1.83780075160478      1.88160138717908
  H          -2.55428961246270     -0.86437327098917      1.99244781123305
  H          -1.07777590341958     -1.57752765662236      2.45744962232110
  F           2.31121996232667      0.14724917258015     -1.73324859315353
  F           2.30015170748689     -1.71216644669476     -0.60666516788521
  H           1.49309663152068     -1.52288595007473     -2.40947131491189
