22
Coordinates from ORCA-job NEB_product E -45.485112604210
  C           2.07989237234256     -1.27745912779533     -1.71515458786048
  C           0.76432855210599     -1.98843955217785     -1.34970665990826
  C           1.94870846023386      0.20741211371406     -1.35137124540043
  H           2.90235233692616     -1.68155122365986     -1.11631444726047
  N           0.92172809244674     -3.24289780313500     -0.88423310769419
  C           2.41154089771877     -1.43128257585839     -3.21701224940975
  C           3.68515143877861     -0.69915221985080     -3.54832537711821
  C           3.75215619424651      0.30732954116353     -4.39700825476891
  O          -0.30561952666557     -1.43470727098345     -1.42587650329396
  C           2.57613276268823     -2.89781134766725     -3.61800886233210
  H           1.57953996690464     -1.02903236850019     -3.80420079812944
  H           4.56414738117331     -1.05173368767433     -3.02567015483322
  H           2.87896837862194      0.67944511709084     -4.90611784694300
  H           4.68033709627693      0.81237680937132     -4.59853169041302
  F           3.16913179310448      0.73567862671970     -1.07560064989987
  F           1.44328147476658      0.94631095207825     -2.35850308290722
  H           1.30915847225842      0.36188247416566     -0.46967715689376
  H           0.08900539935754     -3.78638242190962     -0.72126194537707
  H           1.79547240229165     -3.73615825958768     -0.94934609002003
  F           3.34135292630416     -3.57893049871443     -2.72220990688892
  F           1.39281910638350     -3.55573045868066     -3.65733465996120
  H           3.04801402173497     -3.00346681810854     -4.60623472268648
