22
Coordinates from ORCA-job NEB_reactant E -45.450801019320
  C           1.60948600944410      0.00812042425702     -0.11965928717148
  C           1.46058059538712     -1.27337752304020     -0.52239445899689
  C           2.01555631435037      1.21104982964668     -0.88120430028619
  H           1.37342980444607      0.20335912809575      0.91284736865821
  N           1.04583557112530     -2.23329353939207      0.37262383373935
  C           2.85992104591407     -2.07678636678207     -5.03080319038600
  C           2.79945197776326     -2.30642970917350     -3.73022993498073
  C           2.50244094991515     -1.25885947873277     -2.70780401490648
  O           1.67826446995918     -1.85709092687558     -1.71677987461433
  C           3.19085199353880     -3.12793337646225     -6.04530175642910
  H           2.70378283871297     -1.09535564877414     -5.45349648058798
  H           2.96554475801428     -3.29914033434585     -3.33564407428263
  H           2.00385328569742     -0.40301301550763     -3.17117886168375
  H           3.44574624126194     -0.92618595503679     -2.25600959022400
  F           3.31645888356643      1.19125517144856     -1.31977648092210
  F           1.27821657228776      1.41199711872282     -2.01906901240822
  H           1.90866478619908      2.12050659968503     -0.27336327220679
  H           0.76143471498389     -3.10125572747422     -0.05239110813268
  H           0.49154987415950     -1.92899775190729      1.15395132663914
  F           4.30633161111871     -2.78680073816953     -6.74623646031262
  F           3.45450039702299     -4.32898350933480     -5.47978331641724
  H           2.38219730513161     -3.27678467084716     -6.78229705408749
