23
Coordinates from ORCA-job NEB E -55.293523061520
  C           0.53255083573091      0.79708896959636      0.15723083971461
  C          -0.58842946114302      0.81384610636079      1.01319545065170
  C           0.49121481972632      1.74716340193170     -1.01162190887610
  H           1.49406165715505      0.88128917691350      0.66416788582438
  C          -0.41155640102436      0.65422473704165      2.49804116261941
  C           0.47430326096403     -1.05142520710144     -0.42194140299440
  C          -0.83227189894660     -1.17990376574146     -0.89758687038487
  C          -1.93433436683539     -0.89427856130719     -0.01501700455563
  O          -1.77273624696768      0.55661387630438      0.51414125386931
  C           1.60659880215539     -1.41951755970325     -1.35276698071983
  H           0.68234505734122     -1.41302750558203      0.58074537994388
  H          -1.00449697307103     -1.19745393891755     -1.96300257774945
  H          -1.94374771094600     -1.47519788089390      0.90687458967313
  H          -2.90802618883689     -0.87823366473405     -0.49474050126792
  Br          0.42232316968659      3.57612649394494     -0.22718066312902
  Br          2.11919441367197      1.72852972643837     -2.07107406066076
  Br         -1.02023488160450      1.61154428757812     -2.19316251740425
  Cl         -0.04290727464493     -1.07118096656454      2.94717295056180
  Cl          0.92683784579141      1.64802804209929      3.10106022535321
  Cl         -1.90621482808136      1.10835140780558      3.32925346038198
  F           1.30884572191413     -1.12721802254546     -2.65521386303895
  H           1.76312115753298     -2.50419409628084     -1.30244030665380
  H           2.54355949043175     -0.91117505664296     -1.10613454115843
