23
Coordinates from ORCA-job NEB_product E -55.326011768050
  C           2.57679509662962     -1.71470557267480     -0.51740666752545
  C           1.46331116162700     -1.35352891722199      0.45353664035829
  C           2.65431412070886     -0.57152874313777     -1.52492029950844
  H           3.53582396134594     -1.73261272957086      0.01375646886306
  C           1.82524395923446     -1.38882015635078      1.95132290030954
  C           2.30526886694229     -3.17044139885731     -1.02538857989435
  C           0.92193164499740     -3.40037233401361     -1.57464605055658
  C          -0.09710841075946     -3.80516662542753     -0.83976943165039
  O           0.34119132494117     -1.12669951908545      0.11296484708735
  C           3.34955925327310     -3.66594672149610     -2.03074293616206
  H           2.42741040611925     -3.78891370774448     -0.12878688481854
  H           0.80091148008576     -3.24912220918040     -2.63666052046097
  H          -0.01013165080070     -3.98570156303585      0.21925171075683
  H          -1.06700625686759     -3.96759833441806     -1.27447317202365
  Br          2.63526403744038      1.11864484603908     -0.48105377140203
  Br          4.33996862780611     -0.54972394587367     -2.48733533790331
  Br          1.19868632947918     -0.45768927930140     -2.77344679710012
  Cl          1.79920812289878     -3.12079313904829      2.38755654213754
  Cl          3.42800532042720     -0.73277135434973      2.32258035200773
  Cl          0.59799662108895     -0.52715636325722      2.88510905317792
  F           3.14412999437386     -3.12588012418834     -3.27114826917706
  H           3.25382204267727     -4.75021074836661     -2.14521479492822
  H           4.37180394633113     -3.41176135943882     -1.73158500158707
