20
Coordinates from ORCA-job NEB E -40.644960915330
  C           0.05895888003921     -0.91948677276658     -0.36311403002417
  C          -1.37686240662859     -0.84870363897472     -0.53617054940885
  F           0.44628673009688     -1.73343342731508      0.65115624367217
  H           0.61996927583902     -1.17316385751657     -1.26497903044929
  N          -1.82083300549381     -0.41188289468073     -1.83409497377653
  C           0.49351569242581      0.66916450352346      0.10195805547951
  C          -0.31671053095252      0.87200300017009      1.27724918917969
  C          -1.73271297987329      0.84994748992193      1.15249400368368
  O          -2.11353857123050     -0.54843057979739      0.47669078316867
  O           1.85514287238291      0.87815662881616      0.29435753194005
  H           0.17672840384298      1.24663922877007     -0.77732506508537
  H           0.14851858790441      0.67290291059086      2.23110082270471
  H          -2.16855883761967      1.52651164541396      0.41777128444329
  H          -2.29001222956282      0.84174182299160      2.08252614698201
  O          -2.90417882923890      0.13075531844406     -1.89868248496245
  O          -1.06889150669296     -0.60996424820131     -2.77562521056857
  C           2.79573485408587     -0.17459796219653      0.20532976542170
  H           3.75613298333691      0.30502714126085      0.38496495100879
  H           2.80916065751773     -0.62955453185550     -0.78944926722147
  H           2.63214995982133     -0.94363177659864      0.96384183381239
