20
Coordinates from ORCA-job NEB_reactant E -40.684067073330
  C           2.13509867291555      0.37117940853120     -0.43617005793468
  C           1.52078569346323      1.54897518809575     -0.59738530657901
  F           2.68696556658631     -0.04446215029062      0.70815153492452
  H           2.22794465560475     -0.34007970871137     -1.24248191215051
  N           0.98217649170495      1.83070747546803     -1.93205237447132
  C           4.04446824335692      3.23344332871764      0.44497858538483
  C           3.39587573634634      2.66202116801716      1.45423171889380
  C           1.89645206960330      2.59106652971819      1.50695960392222
  O           1.28409393911187      2.57574393273514      0.22047303943556
  O           5.37313479273128      3.34544650193384      0.25878991623545
  H           3.51642214818800      3.68992041920708     -0.38290035745479
  H           3.90450290873853      2.20590158241484      2.28678545059183
  H           1.47346305349203      3.48338048163512      1.98008093890777
  H           1.58302894635710      1.71286207872870      2.08243304620734
  O           0.55653399035820      2.93938441894432     -2.12077146638781
  O           1.00923413975070      0.93321196808526     -2.74338594950828
  C           6.22109626568640      2.80574032633313      1.24728574686143
  H           7.23707506921123      2.98619930398678      0.90187852122666
  H           6.05788375033585      1.72988633306711      1.36247732863413
  H           6.06816386645747      3.29957141338270      2.21152199326084
