20
Coordinates from ORCA-job NEB_product E -40.670365818090
  C           3.28070819851105      1.47974547957502     -0.66726462502892
  C           1.80753679958858      1.28930084668404     -0.82724801507922
  F           3.80565743977903      0.33935440213875     -0.11540755073450
  H           3.78211447127482      1.64375350435864     -1.62816845566958
  N           1.17106089562693      2.32357200445144     -1.78637107543533
  C           3.57372659941476      2.71994917642166      0.26698496438615
  C           2.91696024181688      2.48701053873423      1.60024787067975
  C           2.04634591884147      3.32613676732563      2.12735900358656
  O           1.08448866678224      0.51216430860402     -0.30459516730994
  O           4.94413221733250      2.99512310595248      0.29964647576576
  H           3.13771301139768      3.59226523482696     -0.23514146378491
  H           3.18623743478855      1.56830249510430      2.10171664148037
  H           1.76718491075272      4.24262382008084      1.63345463846234
  H           1.58108692248233      3.13149814982701      3.07784684291409
  O          -0.01058185783103      2.21415655608221     -1.95339645991628
  O           1.90999687867401      3.14663560731924     -2.27326045316854
  C           5.74605246402080      2.27468176413926      1.21853603120205
  H           6.76489295372374      2.59866684152366      1.01641914193038
  H           5.67583886535530      1.19496848830630      1.07251723379605
  H           5.48524696766765      2.52399090854427      2.25122442192370
