24
Coordinates from ORCA-job NEB E -55.696772196840
  C           0.04679700188409     -0.30478398494647      0.95581975939061
  C          -1.32596701222506     -0.47134409459105      0.76924736828647
  C           0.52754831988313      0.77557185432455      1.87512067365390
  H           0.66306866596268     -1.19304678158115      1.04617876011565
  C          -1.82664361282387     -1.87362128972229      0.45346059054213
  C           0.59580448986231      0.57454687562492     -0.94197896642063
  C          -0.66053588384074      0.77046044601009     -1.53264476994026
  C          -1.62297765784050      1.54120170553210     -0.91001581145492
  O          -2.12014179684955      0.47578125370188      0.56276585790774
  O           1.41722120412932     -0.30910365542792     -1.50296308947458
  H           1.05656313253937      1.40747930318903     -0.41630700423658
  H          -0.95388652457928      0.04339740963054     -2.27857362513158
  H          -2.60482150220020      1.61713669110075     -1.34977888758467
  H          -1.33151079782014      2.36840724951619     -0.28180366600295
  F           1.86529562488551      0.92827770629627      1.79636755155462
  F           0.00354244592689      1.98609446667871      1.66347373616995
  F           0.27138054505902      0.47030830914449      3.15847778262991
  Br         -1.65917115703513     -2.99836597751269      2.04105105257764
  Br         -3.67133328097675     -1.78583688891469     -0.08965058647145
  Br         -0.79541690631153     -2.70155482390077     -0.98871380132502
  C           2.76819687640932     -0.31886745465857     -1.07975860604444
  H           3.19952425847121      0.68465402977511     -1.10830569756790
  H           3.29474515923218     -0.96884596120118     -1.77472892327371
  H           2.86271840825771     -0.71794638806785     -0.06673969789994
