24
Coordinates from ORCA-job NEB_reactant E -55.726951786730
  C           1.67206553552136     -0.09875724135060     -0.12832360039802
  C           1.54738557289706     -0.40565156770872     -1.42635927169410
  C           1.78218732276302      1.26135635467120      0.47028126439176
  H           1.65759993349838     -0.87471993220179      0.61985207285174
  C           1.38503530672831     -1.83677039096105     -1.87750738638886
  C           4.12124987490952      0.99092364794988     -4.22721919894963
  C           2.95013446860281      1.57606583433892     -3.98257261978235
  C           2.34636530946676      1.57243605599764     -2.61860492759875
  O           1.57823070540669      0.34999854776853     -2.51567662425237
  O           4.65266112507139      0.92695770406471     -5.45977269903897
  H           4.70734403531976      0.54880352837412     -3.42475035191596
  H           2.37007515463206      1.98635458804413     -4.79154794418936
  H           1.66767189247050      2.41575052774509     -2.47592461972918
  H           3.12336567023673      1.57573026518489     -1.85182277324237
  F           3.03924879572085      1.75911237306751      0.45590345867052
  F           1.01218630573638      2.18425344105194     -0.12809678578290
  F           1.41451356027895      1.23456880376779      1.75569862378039
  Br          0.86328210317180     -3.09868967136482     -0.52063209395924
  Br          0.08965203541399     -1.91043348847296     -3.31787852349717
  Br          3.12535931105412     -2.38184647194029     -2.59626158673445
  C           5.90411036398430      0.28135808992450     -5.56252789279451
  H           5.84269419436207     -0.75637302597922     -5.22043553501682
  H           6.66980625152554      0.80772938925091     -4.98425786720407
  H           6.17057517122763      0.30064263877770     -6.61716311752533
