20
Coordinates from ORCA-job NEB E -53.542112415080
  C           0.30569250958815      0.13724847441626     -1.13920866524921
  C          -0.48654829818690     -1.01148499473874     -1.29498330417106
  C           1.74419069679694      0.15296623186251     -1.55489146099497
  H          -0.20519596169843      1.02545969278100     -1.49326371593044
  F           0.11800723468768     -2.21754762753800     -1.19274150413055
  C          -0.18843826017140      0.58905841891823      0.86405997689155
  C          -1.38671637491519     -0.10549085944759      1.07529763400003
  C          -2.43205167620581     -0.02125778785470      0.17184690398058
  O          -1.72167930838659     -0.99879853508317     -1.22905397053022
  C           0.88448418251355      0.31321748844132      1.88632263797990
  H          -0.22906874856454      1.63449248452921      0.58770847915257
  H          -1.34473589436749     -0.98297159833095      1.70661589122132
  H          -2.57920497259002      0.88466604462054     -0.39815867362402
  H          -3.31963137026637     -0.61202582639716      0.33177627406312
  Cl          1.79652380306764     -0.28943654399334     -3.31364676721192
  Cl          2.39912515538387      1.80226367512346     -1.44024195016352
  Cl          2.79649831952247     -0.97248003103958     -0.70234372349673
  Cl          0.22418566873768      0.87818943158215      3.46970905197634
  Cl          1.24460206165637     -1.41733512949896      2.04219875419711
  Cl          2.37996123339837      1.21126699164748      1.62299813204013
