20
Coordinates from ORCA-job NEB_product E -53.598351447890
  C           1.34105203906943      0.20812368103190      2.09858659285315
  C           0.18641998745668      0.09774496429829      1.11085091086396
  C           2.55113261866759     -0.58088041860030      1.58819914120483
  H           1.64105437361134      1.26358646629761      2.09540398560718
  F          -0.04775091125557     -1.17055856828903      0.72299257338778
  C           0.71180261378501     -0.07773639763939      3.49722498043077
  C           0.05865978638672     -1.43118306921484      3.62365778796630
  C          -1.24239638452326     -1.60742314373377      3.49346954745198
  O          -0.50615674717256      0.96934652999017      0.72948904667460
  C           1.63419383996481      0.17137763942909      4.69631355052459
  H          -0.07807058226412      0.68159746436305      3.58187907596507
  H           0.70898358432085     -2.26136927939110      3.84565343031692
  H          -1.91569028575674     -0.79369909082036      3.27687388616395
  H          -1.68625131076850     -2.58211036097580      3.58852564146511
  Cl          2.47204567265838     -2.32242119990926      1.84355737294563
  Cl          2.63360563317738     -0.27902832195440     -0.19152038405351
  Cl          4.06541498202492      0.04418496623705      2.27322736721294
  Cl          0.60284157591944      0.19186695604209      6.15835696134741
  Cl          2.85516797875855     -1.08722303640998      4.92897395528864
  Cl          2.43874153593964      1.75310421924899      4.58018457638267
