21
Coordinates from ORCA-job NEB_product E -49.781217796550
  C           1.55889856228614     -0.51735790537265      2.37125990255159
  C           2.54725171661763     -1.71617546300366      2.36693857168204
  C           1.47645049794505      0.14437966388967      0.99996948802783
  H           2.01765302673781      0.22082084532303      3.04104441174900
  O           2.30846719546665     -2.68531401554356      1.49140117130880
  C           0.15560223275257     -0.88116911920515      2.92929165000644
  C          -0.20711675138968     -2.33585944059442      2.79527079268449
  C          -1.21066340909724     -2.77525683407850      2.05969832984427
  O           3.47115818142639     -1.75302861605404      3.11801595588052
  C           0.08119000246413     -0.50320998181192      4.41492007170285
  H          -0.59155137423218     -0.26450984186055      2.41891535656106
  H           0.39839131762859     -3.01632658388877      3.37828266160222
  H          -1.82831833362686     -2.10938709764464      1.47979705999335
  H          -1.45100297731169     -3.82221546692522      2.00471059350093
  Cl          0.54480986557677     -0.83452240385581     -0.17780643293341
  Cl          0.67003364494157      1.73283277777156      1.12047200669961
  Cl          3.11907073662537      0.38529717492587      0.34760925220362
  H           1.53995140255683     -2.52680029378890      0.91679814958336
  F           1.03061189999629     -1.13420257774348      5.13536047102717
  F           0.29183821368940      0.82403681441673      4.58175841426923
  H          -0.89792565105354     -0.74713163495557      4.85619212205501
