21
Coordinates from ORCA-job NEB_reactant E -49.768819137330
  C           1.48580621564943      0.09743575781130      0.17304378181671
  C           0.81035312354434     -0.79600182102327      0.92563658059503
  C           2.65725293946483     -0.24803029047466     -0.63818369998575
  H           1.15026861245870      1.11775418151904      0.16769805935621
  O           1.10105514821950     -2.09798923223987      1.03251344496458
  C          -0.69354851202421     -1.40379814546262      4.93361770810195
  C          -0.18008415511863     -1.57458645514555      3.72777629112914
  C          -0.92906087679176     -1.30891369287493      2.45823577647222
  O          -0.24864391446807     -0.37489646350518      1.62211547003838
  C           0.05201199961605     -1.68642831472168      6.20271638177106
  H          -1.70876433601590     -1.07031007650141      5.09120409240152
  H           0.83830719710058     -1.91688616340695      3.60653367873490
  H          -1.89568250954970     -0.84446355527362      2.66136595238923
  H          -1.07723077390932     -2.25225060743356      1.91911447117996
  Cl          2.28184044797175     -1.53952499447958     -1.86346367603033
  Cl          3.28157664193068      1.15149316197848     -1.50340784151894
  Cl          4.00735627500340     -0.92915487742935      0.37224210147092
  H           1.85404591104284     -2.33425894487700      0.47124489450532
  F          -0.64680643262657     -2.55391768906101      6.98253436114145
  F           1.25469102235813     -2.26181980592633      5.97779135656755
  H           0.22335597614392     -0.77695197147225      6.80537081489890
