21
Coordinates from ORCA-job NEB_reactant E -35.846829856830
  C           2.22391774596288     -0.18771664910992     -0.56351536990823
  C           1.58711230253204     -1.37898251141197     -0.66520411143527
  N           1.93709396933912      1.02753787865914     -1.20446032840839
  H           3.08745172355512     -0.12068531826338      0.07999218321586
  C           1.99485118664148     -2.49004036999326      0.26285869040571
  C           2.52492586044963     -1.76662272177283     -3.84582531023884
  C           1.62470577197053     -0.82700378496056     -3.55298954936668
  C           0.38989689367286     -1.11846185786073     -2.75577084654847
  O           0.67037151070828     -1.79707820361844     -1.52310384230196
  N           3.73877440101370     -1.53598853119164     -4.44408812372327
  H           2.36478994800744     -2.79293370702971     -3.53965989335438
  H           1.78811673512059      0.19627440349479     -3.85424599957460
  H          -0.27232604768552     -1.82125910792864     -3.27182660723356
  H          -0.15289542681529     -0.18875004370340     -2.55717694548014
  O           2.86966998613601      1.79356881227290     -1.38399942702488
  O           0.77804078673071      1.29382249834564     -1.49043768421203
  H           2.79689595174618     -3.06831898715881     -0.19369600253950
  H           1.14736674809962     -3.15265771770078      0.41627021906328
  H           2.33935499690222     -2.10377189962378      1.21599422064145
  H           3.85055528630967     -0.62489934212276     -4.86194427044190
  H           4.13902966960272     -2.29153283932185     -4.97487100153420
