21
Coordinates from ORCA-job NEB_product E -35.839178382980
  C           2.71851142903578     -1.05184843073793     -1.58793430017914
  C           1.59909303030142     -1.51450226793845     -0.62159531686585
  N           3.00322982658816      0.35900259576604     -1.22772494031830
  H           3.63831884981947     -1.59880521176342     -1.36115634622974
  C           2.12757456620885     -2.02993995901679      0.67839202317167
  C           2.36142353848038     -1.25833557490203     -3.07365401146317
  C           1.03232930193422     -0.67772888917286     -3.48106012598382
  C           0.12515654970388     -1.36353907284292     -4.15054754472947
  O           0.44123118859172     -1.42676469371667     -0.91163527284661
  N           3.47792494955432     -0.74608096383128     -3.86612892394377
  H           2.33187994724189     -2.34529804085708     -3.22771977798889
  H           0.88861578293085      0.37029513719845     -3.26477852640547
  H           0.25533068812782     -2.40919763774956     -4.38012569993595
  H          -0.79439098858556     -0.91314814833810     -4.48057764813102
  O           3.58897179953156      0.51784310549029     -0.18206839407774
  O           2.63472181823443      1.24124341325629     -1.95655205596701
  H           2.68994849917436     -2.94619590792163      0.50880500579158
  H           1.30959237253624     -2.22767645724100      1.36549330480787
  H           2.80817766708440     -1.29389960654239      1.10635142531442
  H           3.46788898528676      0.27017995914712     -3.85615768151820
  H           3.37797019821904     -1.03730334828608     -4.83142519250138
