18
Coordinates from ORCA-job NEB E -40.745947693300
  C           0.11433400117379      0.56339857691556     -0.77456567660266
  C          -0.24733696369986     -0.79144168157512     -0.92394482656611
  C           1.41015572142572      1.02705388757520     -1.31859748944971
  H          -0.69871287136341      1.26101750819215     -0.92929017410290
  O           0.71171319390484     -1.65388413785811     -1.29770641479654
  C          -0.05231279015633      0.81039236388849      1.32878587395456
  C          -0.60250204746916     -0.39639445169474      1.75352010015215
  C          -1.80795179676880     -0.80842750335704      1.20116188828557
  O          -1.36044385538895     -1.23170133050586     -0.53601418574014
  Cl          1.48658534441903      1.27075020515452      1.95235443888523
  H          -0.69897907870572      1.66542081265350      1.18208249681130
  H           0.06577946578994     -1.13947288668169      2.16692484542818
  H          -2.53931144771137     -0.06402908060079      0.92280854087188
  H          -2.21851051686809     -1.76608601679920      1.47927141303363
  Br          1.66792148441290      2.92510409607436     -0.96219823931671
  Br          2.96206012102319      0.06524247376292     -0.67199989683592
  Br          1.42161139474121      0.82799391929285     -3.31125791176212
  H           0.38590064124108     -2.56493675443701     -1.26133478224970
