22
Coordinates from ORCA-job P E -35.603125489880
  C          -1.39462513033664      0.43875258201381     -2.77092050889119
  C          -0.27616385791600     -1.58082230811731     -0.89020116096465
  C          -1.18242793241810     -1.92282841457592     -2.02904257848789
  C          -1.67115122912251     -1.03003402297129     -2.87960397667874
  C          -0.15651005518486      0.70528904393024     -1.90088764833525
  C          -0.25425034349444     -0.07847226338544     -0.59257721665224
  H          -1.40194281828964     -2.97396154834852     -2.15614506396089
  H          -2.31169867797294     -1.33720451084162     -3.69519570434274
  C          -2.57676405518249      1.20922811928289     -2.16269797772610
  H          -0.57681253268337     -2.13282463435461      0.00331281712128
  H          -1.22849061385895      0.86874936442824     -3.76354355669917
  H           0.73441354885837     -1.92018352893415     -1.14374817757150
  H          -0.08029446944865      1.77594741532741     -1.70388042237799
  H          -1.17769673657058      0.19836642380557     -0.07220951122980
  H           0.73639538447263      0.39137074943597     -2.44544824787294
  C           0.91153941254260      0.27198460641465      0.32726556392915
  O          -2.69449450249015      2.39484131610815     -2.26735659430581
  O          -3.45427717111607      0.47422650523385     -1.47039472129577
  H          -3.21472540877441     -0.46891434086348     -1.49023802424592
  F           0.80082672817288     -0.40596126036030      1.51702785420833
  H           0.92028759011847      1.33887681213358      0.57161443716137
  H           1.87250287069485     -0.01828610536168     -0.11133958078154
