24
Coordinates from ORCA-job NEB_reactant E -36.579041775060
  C           1.73733886238156     -0.22679882452485      0.34577654139622
  C           0.99155372585583     -1.13022083872137      0.95930612703524
  C           2.15343886917380     -0.34126006204056     -1.08548998897436
  H           2.07877530288817      0.62841578277008      0.90643283708128
  F           0.72125271847865     -0.98708220663881      2.29160657536393
  C           3.03259455090935     -3.60108761788415      1.66350655953420
  C           2.05458681872547     -3.90268329275375      0.81516537765369
  C           0.64670493513884     -3.45624705735952      1.05646923077973
  O           0.39884225585376     -2.19345706961871      0.40786096390919
  O           4.35095141858135     -3.86292237762830      1.55584282355119
  H           2.83513266891568     -3.09169473981448      2.59839038684236
  H           2.24324843975192     -4.38774019888407     -0.12900962385632
  H           0.43896179149420     -3.36355340922035      2.12751971851011
  H          -0.07294156277674     -4.13744915899707      0.60089508386897
  C           3.67678765820894     -0.39579960818163     -1.19963866569705
  H           1.78230986376016      0.52182251570509     -1.64387344369358
  H           1.71140506913676     -1.24095923740001     -1.51471800789159
  H           4.12159672073333      0.51241605051748     -0.79987820318720
  H           3.97615529652043     -0.49862063263061     -2.23993650482536
  H           4.06739988368619     -1.24164453769173     -0.63822660551877
  C           4.79401381325242     -4.51903239016975      0.39010594492024
  H           4.56280294238068     -3.93481731483872     -0.50615902465149
  H           4.34152910948024     -5.51111552959230      0.29900907172651
  H           5.87305884746902     -4.61826824440192      0.49204282612285
