24
Coordinates from ORCA-job NEB_product E -36.589507572420
  C           2.48339764104263     -1.26899596556985      0.79743176551476
  C           1.33905455070080     -0.95994986373338      1.70571048306662
  C           2.22879409619082     -0.64809168062877     -0.59034196789855
  H           3.37469520034909     -0.78701728605180      1.21883608239593
  F           1.17927128998406      0.39256632937981      1.83803949568349
  C           2.74967904587057     -2.79239769955257      0.78757407006022
  C           1.87556759293309     -3.52291543334286     -0.19847097424851
  C           0.73700639653803     -4.10674839302795      0.12181737313309
  O           0.60476274075255     -1.67205638939639      2.29378956771189
  O           4.12774683202787     -2.97111536857224      0.50949276640498
  H           2.53462504777674     -3.17313529917442      1.80114078986896
  H           2.25572777271342     -3.54775919832104     -1.21090902160682
  H           0.35652942371368     -4.08441084608087      1.12921278564428
  H           0.13164103547653     -4.61095782973929     -0.61216954040286
  C           3.48488014722120     -0.65058180406680     -1.45096508241991
  H           1.88997208571094      0.38131041591265     -0.45577818027420
  H           1.42894967328945     -1.20268310500048     -1.08483518989085
  H           4.24605708982852     -0.01024190671497     -1.01218669519578
  H           3.25373877879812     -0.28030828208329     -2.44685761629275
  H           3.89524185766069     -1.65196551407813     -1.53216537763256
  C           4.58368885520836     -4.27567142574030      0.76179407765040
  H           5.64668339157997     -4.27938208359754      0.52961738040008
  H           4.06860552100144     -5.01327149247960      0.13620283113708
  H           4.43738393363139     -4.54721987833992      1.81462017719102
