18
Coordinates from ORCA-job P E -26.503570458610
  C          -1.54603526320051      0.69666748446989     -1.86729170661758
  C          -0.57652828891710     -1.42297272869474     -0.39967355452601
  C          -2.04698316358084     -1.35173304583752     -0.65998364374185
  C          -2.51403941092510     -0.33976845774452     -1.37388172968913
  C          -0.65846391007035      1.14190919732115     -0.68352582110369
  C          -0.05523394135906     -0.05008350462775      0.09158635944152
  H          -2.68410607633615     -2.12556032746568     -0.26220359407556
  H          -3.55846311956194     -0.21027034011016     -1.61042919804125
  O          -2.16289327407375      1.79644566982462     -2.48644537898854
  H          -0.33582682368752     -2.18968599343700      0.33708033948311
  H          -0.90672104413509      0.26199372247050     -2.64713270498042
  H          -0.05894536770973     -1.67721971052460     -1.33065864431127
  H          -1.27915522734105      1.73701154800518     -0.00825208568214
  H          -0.30296460710407      0.04994861588650      1.15453635718488
  H           0.13190597355004      1.79213383325159     -1.06348234764369
  C           1.38400366609866     -0.03385382710574     -0.01678751518875
  H          -2.77926301636153      2.20168687564583     -1.86529097789291
  N           2.52339289471511     -0.02851901132754     -0.10939415362675
