18
Coordinates from ORCA-job R E -26.422096472140
  C          -1.32977023340048     -0.04209253145958     -3.17156929420518
  C          -0.26185088697309     -2.65311674077547     -2.06287218369060
  C          -1.54015393571518     -2.31069028708029     -2.19421070167882
  C          -2.05835755831133     -1.06714600499141     -2.72287133329624
  C          -1.03617782989675      0.94250639524420     -0.06325586191294
  C          -0.07677398720206      0.03570568911093      0.07988200650062
  H          -2.30235918169386     -3.01331380433326     -1.87994102576522
  H          -3.13930267566557     -0.97831013830693     -2.74626446977524
  O          -1.83194316780637      1.11736218861960     -3.64923007171610
  H           0.01843153696425     -3.60854085155988     -1.65408890202598
  H          -0.25101564821532     -0.03996232322238     -3.19052307792445
  H           0.54676072991882     -2.00803093896239     -2.35831269060112
  H          -1.97591792331950      0.85122460848792      0.45450409511351
  H          -0.18909212617760     -0.83533190398185      0.71156650860663
  H          -0.90982204549642      1.80214306678036     -0.70056798265855
  C           1.15922724705179      0.13688305228192     -0.59219763262279
  H          -2.79817588595307      1.08502709360705     -3.64786328554423
  N           2.16609357189175      0.21175343054147     -1.13552409680330
