18
Coordinates from ORCA-job TS E -26.412191574970
  C          -0.63719768597952      0.70736304967989     -1.22651390011108
  C           0.75160084154569     -1.57709588341268     -0.14865677416458
  C          -0.58479275746666     -1.57318493382558     -0.37939564410327
  C          -1.26598729404854     -0.47215126361728     -0.93407861887234
  C          -0.03371902599763      1.21210996681631      0.85485142714412
  C           0.71761127754072      0.20247215232443      1.39224371994210
  H          -1.19244474711465     -2.37161700975644      0.02499408343859
  H          -2.34946024796069     -0.49279854431671     -0.93607327579095
  O          -1.28684260981750      1.80928072640030     -1.66303200776891
  H           1.21148794841188     -2.39441240459785      0.38194478484255
  H           0.40941398622645      0.75160078229186     -1.48392589901931
  H           1.42730812332008     -0.95325054935329     -0.70453944243965
  H          -1.05607951586701      1.33647161280765      1.16970703076176
  H           0.28820473795906     -0.50543391591642      2.08608111911450
  H           0.44825866870162      2.08126881057248      0.44084362460435
  C           2.12328327006553      0.24263416925324      1.34887546079822
  H          -2.24058152163135      1.70668286221235     -1.54372861852295
  N           3.26993655211254      0.29006037243774      1.32040293014685
