19
Coordinates from ORCA-job R E -35.016378959610
  C          -1.39225373444851     -0.16071457837908     -2.90088994527718
  C          -0.10054124055241     -2.74745315398727     -2.04767684049769
  C          -1.22841854891584     -2.23751069346545     -1.56061202087634
  C          -1.82731979503988     -0.97172466261767     -1.93541343705624
  C          -0.81840189538085      1.91137220472167      0.32154736357635
  C          -0.22292594838778      0.74034068903945      0.28631658895266
  H          -1.77227371958269     -2.78618141341153     -0.80298898140916
  H          -2.70365639538405     -0.69270421080442     -1.36343028106878
  C          -1.99986991981462      1.12180693291769     -3.28851928148916
  H           0.27483066609845     -3.69475986313123     -1.70219374006913
  H          -0.52856342210826     -0.41846117929196     -3.49964654539723
  H           0.49543705410415     -2.24708461378453     -2.79083864724042
  H          -1.77384352922187      2.02493058328380      0.80832046260743
  H          -0.61992752636097     -0.15370262672309      0.73552599319600
  H          -0.39744885527664      2.79367322253873     -0.12988646341978
  I           1.63173344701319      0.41186859847053     -0.65925383530553
  Br         -3.43774972794680      1.73511979033642     -2.13752858258745
  Br         -0.62914156261389      2.53780833615969     -3.31372572675700
  Br         -2.73248534618073      0.97966663812825     -5.13401607988133
