19
Coordinates from ORCA-job TS E -34.996875170690
  C          -0.39850013182612      0.33535013792900     -0.92471466991872
  C           0.93591040850671     -1.86255553548553      0.31288493647282
  C          -0.41306637112660     -1.83333594153148      0.16299330853033
  C          -1.07123302553017     -0.77071345153509     -0.48268983044570
  C           0.40900368434446      1.01344516560484      1.08413673818985
  C           1.21699199814797      0.05284945511489      1.59094474163350
  H          -1.02937646555127     -2.54008465097257      0.69997797951660
  H          -2.15203443522753     -0.74569457401798     -0.43548475514488
  C          -1.12593914586459      1.47217519364751     -1.53470087869639
  H           1.40112296502778     -2.62572541391769      0.91502716650377
  H           0.63449287740208      0.26544446364579     -1.23326734556624
  H           1.58567115202234     -1.37516143897209     -0.39106046676632
  H          -0.59805275237646      1.09941785303874      1.45814381614513
  H           0.91507006873271     -0.60007273331800      2.38906175583327
  H           0.82259039703459      1.87774282410470      0.59404858757821
  I           3.32464362525088      0.22255742930760      1.41527815383223
  Br         -2.65406598514222      2.05764646415741     -0.46464747778305
  Br          0.03212387244833      3.01657214670530     -1.82561692147008
  Br         -1.83535273627290      0.94014260649467     -3.33031483844432
