25
Coordinates from ORCA-job NEB_reactant E -42.949422614170
  C           1.61041265998004     -0.10723468987182     -0.26456943232535
  C           1.40681227649852      0.88413086036824     -1.13482960211567
  C           1.54721935507238     -0.06621212388530      1.22511466461039
  H           1.82794362341428     -1.08130326627649     -0.68291933354193
  N           1.48242259438778      0.54984220541366     -2.57052406204203
  C           3.86575867858940      4.06088322160716     -0.22142565705461
  C           3.15314551981782      2.97595157865089      0.03395390351830
  C           1.65516856175100      2.95087264184721      0.07104162877645
  O           1.10205157649873      2.18019562016962     -0.99614838082568
  C           5.35660771238796      4.10869406642851     -0.26897630767350
  H           3.36427913291043      5.00506794826979     -0.38980961435786
  H           3.64520364475133      2.02472112200975      0.19197950856573
  H           1.25092801893182      3.95073099779650     -0.09772438164944
  H           1.29003881858297      2.57640404335521      1.03575463038686
  F           1.83262905285937     -1.30410419395992      1.73454575671776
  H           0.54164147997290      0.19284825940156      1.58180678874192
  H           2.28197911412278      0.62293771303214      1.66233901557540
  O           1.44231808549738      1.47085749128295     -3.34542741555878
  O           1.58135523287981     -0.61896043317204     -2.86751820778530
  C           5.90838656450357      5.11088743322910      0.74464170055177
  H           5.66279353615611      4.41479542919054     -1.27302469234151
  H           5.77021312057328      3.11769510159277     -0.07518054522631
  H           5.51909981134021      6.10711743578267      0.54827554722159
  H           6.99319750202619      5.14722207254941      0.68734292986428
  H           5.62489432649395      4.82335946518787      1.75458155796755
