25
Coordinates from ORCA-job NEB_product E -42.954411391850
  C           2.80720266890074      1.29720262427818     -0.14299129543034
  C           1.87937277077318      0.81979401846278     -1.19695071717493
  C           2.24966633501755      0.91108021149538      1.22856847847749
  H           3.78467584878313      0.82359255695343     -0.27377989192335
  N           2.55165413883478      0.76196899701726     -2.59388613161914
  C           2.96778087639006      2.84236145952705     -0.40282219968531
  C           2.43258294954385      3.65865118952250      0.73515377888916
  C           1.42297497610049      4.50045516932831      0.61488758838890
  O           0.72600624317104      0.54748846312437     -1.14763282531365
  C           4.43205780522811      3.19387212781366     -0.71633675491167
  H           2.37721116715259      3.10035883039148     -1.29285379797334
  H           2.93923559560121      3.53851637158768      1.68085960525194
  H           0.89808424934060      4.63494085094959     -0.31738179627071
  H           1.08003472603679      5.09553844294878      1.44361665726791
  F           3.19589902869001      1.10280589159848      2.19835658216373
  H           1.99060597918548     -0.15287390498503      1.24662824068769
  H           1.37573769889925      1.51122651508303      1.49653057175361
  O           1.80204644535972      0.74113309012877     -3.53140771672780
  O           3.75951178441562      0.73549897355489     -2.62377362730417
  C           5.38679102395198      3.02119645884823      0.45884577913636
  H           4.45967905042180      4.23310356404384     -1.05080844231986
  H           4.76490388528898      2.57105031791479     -1.55035423277421
  H           5.20045272026302      3.76805673006386      1.22570384707843
  H           6.41106080076753      3.13938055944748      0.11475622532159
  H           5.29397123188247      2.03790049090120      0.91197207501166
